
 ===================================================
  XFOIL Version 6.99
  Copyright (C) 2000   Mark Drela, Harold Youngren

  This software comes with ABSOLUTELY NO WARRANTY,
    subject to the GNU General Public License.

  Caveat computor
 ===================================================

 File  xfoil.def  not found

   QUIT    Exit program

  .OPER    Direct operating point(s)
  .MDES    Complex mapping design routine
  .QDES    Surface speed design routine
  .GDES    Geometry design routine

   SAVE f  Write airfoil to labeled coordinate file
   PSAV f  Write airfoil to plain coordinate file
   ISAV f  Write airfoil to ISES coordinate file
   MSAV f  Write airfoil to MSES coordinate file
   REVE    Reverse written-airfoil node ordering

   LOAD f  Read buffer airfoil from coordinate file
   NACA i  Set NACA 4,5-digit airfoil and buffer airfoil
   INTE    Set buffer airfoil by interpolating two airfoils
   NORM    Buffer airfoil normalization toggle
   XYCM rr Change CM reference location, currently  0.25000 0.00000

   BEND    Display structural properties of current airfoil

   PCOP    Set current-airfoil panel nodes directly from buffer airfoil points
   PANE    Set current-airfoil panel nodes ( 160 ) based on curvature
  .PPAR    Show/change paneling

  .PLOP    Plotting options

   WDEF f  Write  current-settings file
   RDEF f  Reread current-settings file
   NAME s  Specify new airfoil name
   NINC    Increment name version number

   Z       Zoom    | (available in all menus)
   U       Unzoom  | 

 XFOIL   c>   ...............................................

  G raphics-enable flag:        T
  S ize of plot object          10.00"
  A spect ratio of plot object   0.5500
  P age dimensions              11.00 x  8.50"
  M argins from page edges       0.00",  0.00"
  F ont size (relative)          0.0150
  W indow/screen size fraction   0.8000
  B lowup input method:        Cursor    
  O rientation of plot:        Landscape 
  C olor PostScript output?     F

      Option, Value   (or <Return>)    c>   ...............................................

  G raphics-enable flag:        F
  S ize of plot object          10.00"
  A spect ratio of plot object   0.5500
  P age dimensions              11.00 x  8.50"
  M argins from page edges       0.00",  0.00"
  F ont size (relative)          0.0150
  W indow/screen size fraction   0.8000
  B lowup input method:        Cursor    
  O rientation of plot:        Landscape 
  C olor PostScript output?     F

      Option, Value   (or <Return>)    c>  
 XFOIL   c>  
Enter filename   s>  
 Labeled airfoil file.  Name:  aux_files/xfoil                                 

 Number of input coordinate points: 163
 Clockwise ordering
 Max thickness =     0.149534  at x =   0.380
 Max camber    =     0.050088  at x =   0.610

  LE  x,y  =  -0.00005   0.01003  |   Chord =   1.00005
  TE  x,y  =   1.00000   0.00723  |

 Current airfoil nodes set from buffer airfoil nodes ( 163 )

 XFOIL   c>  
.OPERi   c>  
Enter Reynolds number   r>  
 M  =    0.0000
 Re =   2950000

.OPERv   c>  
 Polar  1 newly created for accumulation
 Airfoil archived with polar: aux_files/xfoil                                 

Enter  polar save filename  OR  <return> for no file   s>  
 New polar save file available

Enter  polar dump filename  OR  <return> for no file   s>  
 Polar dump file will NOT be written

 Polar accumulation enabled

.OPERva   c>   Calculating unit vorticity distributions ...
 Calculating wake trajectory ...
 Calculating source influence matrix ...

 Solving BL system ...

 Initializing BL ...
    side            1  ...
 MRCHUE: Inverse mode at  54     Hk =   5.178
 MRCHUE: Inverse mode at  55     Hk =   6.877
 MRCHUE: Inverse mode at  56     Hk =   3.643
 MRCHUE: Inverse mode at  57     Hk =   2.500
    side            2  ...
 MRCHUE: Inverse mode at  86     Hk =   1.723
 MRCHUE: Inverse mode at  87     Hk =   1.715

 Side 1  free  transition at x/c =  0.6996   56
 Side 2  free  transition at x/c =  0.3502   39
 idif Ue xi dudx           1  0.11891017      1.94656849E-03   61.087074    
 Uenew xinew           2  1.41929043E-02  2.32338905E-04

   1   rms: 0.8465E-01   max: 0.6522E+00   C at   39  2   RLX: 0.836
       a = -2.000      CL =  0.6900
      Cm = -0.2056     CD =  0.00552   =>   CDf =  0.00399    CDp =  0.00153

 Side 1  free  transition at x/c =  0.7066   56
 Side 2  free  transition at x/c =  0.3353   39

   2   rms: 0.7676E-01   max: 0.9736E+00   C at   39  2
       a = -2.000      CL =  0.6655
      Cm = -0.1999     CD =  0.00523   =>   CDf =  0.00408    CDp =  0.00115

 Side 1  free  transition at x/c =  0.7360   58
 Side 2  free  transition at x/c =  0.3124   38

   3   rms: 0.8069E-01   max: -.1338E+01   D at   58  1   RLX: 0.374
       a = -2.000      CL =  0.6672
      Cm = -0.2011     CD =  0.00554   =>   CDf =  0.00395    CDp =  0.00159

 Side 1  free  transition at x/c =  0.7267   57
 Side 2  free  transition at x/c =  0.3105   37

   4   rms: 0.3264E-01   max: -.5061E+00   D at   58  1   RLX: 0.988
       a = -2.000      CL =  0.6636
      Cm = -0.1995     CD =  0.00550   =>   CDf =  0.00399    CDp =  0.00152

 Side 1  free  transition at x/c =  0.7186   56
 Side 2  free  transition at x/c =  0.3124   38

   5   rms: 0.9920E-02   max: -.1225E+00   D at   57  1
       a = -2.000      CL =  0.6635
      Cm = -0.1995     CD =  0.00556   =>   CDf =  0.00404    CDp =  0.00152

 Side 1  free  transition at x/c =  0.7176   56
 Side 2  free  transition at x/c =  0.3120   38

   6   rms: 0.2735E-03   max: -.4908E-02   D at   57  1
       a = -2.000      CL =  0.6635
      Cm = -0.1995     CD =  0.00556   =>   CDf =  0.00404    CDp =  0.00153

 Side 1  free  transition at x/c =  0.7176   56
 Side 2  free  transition at x/c =  0.3119   38

   7   rms: 0.1943E-05   max: -.2053E-04   C at   56  1
       a = -2.000      CL =  0.6635
      Cm = -0.1995     CD =  0.00556   =>   CDf =  0.00404    CDp =  0.00153
 plradd ia,ip,cpol            1          79  0.57473999    

 Point added to stored polar  1
 Point written to save file  aux_files/XFOIL_Polar_Output.dat                
 Dump file unspecified or not available

.OPERva   c>   Calculating wake trajectory ...
 Calculating source influence matrix ...

 Solving BL system ...

 Side 1  free  transition at x/c =  0.7176   56
 Side 2  free  transition at x/c =  0.3119   38

   1   rms: 0.2849E+00   max: 0.3641E+01   D at   38  2   RLX: 0.156
       a = -1.500      CL =  0.6746
      Cm = -0.2002     CD =  0.00546   =>   CDf =  0.00404    CDp =  0.00142

 Side 1  free  transition at x/c =  0.7164   56
 Side 2  free  transition at x/c =  0.3272   38

   2   rms: 0.1743E+00   max: -.4123E+01   C at   38  2   RLX: 0.121
       a = -1.500      CL =  0.6816
      Cm = -0.2004     CD =  0.00550   =>   CDf =  0.00400    CDp =  0.00150

 Side 1  free  transition at x/c =  0.7155   56
 Side 2  free  transition at x/c =  0.3415   39

   3   rms: 0.2006E+00   max: -.4843E+01   C at   39  2   RLX: 0.103
       a = -1.500      CL =  0.6863
      Cm = -0.2005     CD =  0.00545   =>   CDf =  0.00397    CDp =  0.00148

 Side 1  free  transition at x/c =  0.7147   57
 Side 2  free  transition at x/c =  0.3488   39

   4   rms: 0.4340E+00   max: -.6981E+01   T at    2  1   RLX: 0.072
       a = -1.500      CL =  0.6896
      Cm = -0.2007     CD =  0.00542   =>   CDf =  0.00394    CDp =  0.00148

 Side 1  free  transition at x/c =  0.7142   57
 Side 2  free  transition at x/c =  0.3546   39

   5   rms: 0.1781E+00   max: -.4079E+01   C at   39  2   RLX: 0.123
       a = -1.500      CL =  0.6946
      Cm = -0.2009     CD =  0.00540   =>   CDf =  0.00393    CDp =  0.00147

 Side 1  free  transition at x/c =  0.7134   57
 Side 2  free  transition at x/c =  0.3621   40

   6   rms: 0.1101E+00   max: 0.1339E+01   D at   40  2   RLX: 0.547
       a = -1.500      CL =  0.7143
      Cm = -0.2017     CD =  0.00529   =>   CDf =  0.00392    CDp =  0.00137

 Side 1  free  transition at x/c =  0.7094   57
 Side 2  free  transition at x/c =  0.3772   40

   7   rms: 0.2872E-01   max: -.3513E+00   C at   40  2
       a = -1.500      CL =  0.7272
      Cm = -0.2015     CD =  0.00540   =>   CDf =  0.00392    CDp =  0.00148

 Side 1  free  transition at x/c =  0.7064   57
 Side 2  free  transition at x/c =  0.4473   44

   8   rms: 0.1525E+00   max: -.3863E+01   C at   44  2   RLX: 0.129
       a = -1.500      CL =  0.7271
      Cm = -0.2016     CD =  0.00519   =>   CDf =  0.00376    CDp =  0.00143

 Side 1  free  transition at x/c =  0.7063   57
 Side 2  free  transition at x/c =  0.4523   45

   9   rms: 0.7301E-01   max: -.1227E+01   C at   45  2   RLX: 0.408
       a = -1.500      CL =  0.7296
      Cm = -0.2023     CD =  0.00513   =>   CDf =  0.00375    CDp =  0.00139

 Side 1  free  transition at x/c =  0.7060   57
 Side 2  free  transition at x/c =  0.4727   46

  10   rms: 0.7213E-01   max: -.1533E+01   C at   46  2   RLX: 0.326
       a = -1.500      CL =  0.7310
      Cm = -0.2026     CD =  0.00510   =>   CDf =  0.00369    CDp =  0.00141
 VISCAL:  Convergence failed

.OPERva   c>   Calculating wake trajectory ...
 Calculating source influence matrix ...

 Solving BL system ...

 Side 1  free  transition at x/c =  0.7059   57
 Side 2  free  transition at x/c =  0.4811   46

   1   rms: 0.6647E+00   max: -.1643E+02   C at   46  2   RLX: 0.030
       a = -1.000      CL =  0.7333
      Cm = -0.2028     CD =  0.00510   =>   CDf =  0.00367    CDp =  0.00143

 Side 1  free  transition at x/c =  0.7055   56
 Side 2  free  transition at x/c =  0.4887   47

   2   rms: 0.5263E+00   max: -.9746E+01   C at   47  2   RLX: 0.051
       a = -1.000      CL =  0.7372
      Cm = -0.2031     CD =  0.00505   =>   CDf =  0.00366    CDp =  0.00140

 Side 1  free  transition at x/c =  0.7052   56
 Side 2  free  transition at x/c =  0.5005   47

   3   rms: 0.5546E+00   max: -.1376E+02   C at   47  2   RLX: 0.036
       a = -1.000      CL =  0.7397
      Cm = -0.2033     CD =  0.00505   =>   CDf =  0.00362    CDp =  0.00143

 Side 1  free  transition at x/c =  0.7049   56
 Side 2  free  transition at x/c =  0.5085   48

   4   rms: 0.4171E+00   max: -.8658E+01   C at   48  2   RLX: 0.058
       a = -1.000      CL =  0.7435
      Cm = -0.2035     CD =  0.00501   =>   CDf =  0.00360    CDp =  0.00141

 Side 1  free  transition at x/c =  0.7046   56
 Side 2  free  transition at x/c =  0.5183   48

   5   rms: 0.3327E+00   max: -.8112E+01   C at   48  2   RLX: 0.062
       a = -1.000      CL =  0.7471
      Cm = -0.2037     CD =  0.00500   =>   CDf =  0.00358    CDp =  0.00143

 Side 1  free  transition at x/c =  0.7042   56
 Side 2  free  transition at x/c =  0.5258   49

   6   rms: 0.2305E+00   max: -.4339E+01   C at   49  2   RLX: 0.115
       a = -1.000      CL =  0.7533
      Cm = -0.2040     CD =  0.00496   =>   CDf =  0.00356    CDp =  0.00141

 Side 1  free  transition at x/c =  0.7035   56
 Side 2  free  transition at x/c =  0.5356   49

   7   rms: 0.1423E+00   max: -.3200E+01   C at   49  2   RLX: 0.156
       a = -1.000      CL =  0.7603
      Cm = -0.2043     CD =  0.00496   =>   CDf =  0.00353    CDp =  0.00143

 Side 1  free  transition at x/c =  0.7025   57
 Side 2  free  transition at x/c =  0.5430   49

   8   rms: 0.1089E+00   max: -.1588E+01   C at   49  2   RLX: 0.315
       a = -1.000      CL =  0.7722
      Cm = -0.2047     CD =  0.00492   =>   CDf =  0.00352    CDp =  0.00140

 Side 1  free  transition at x/c =  0.7006   57
 Side 2  free  transition at x/c =  0.5556   49

   9   rms: 0.4807E-01   max: -.8373E+00   C at   49  2   RLX: 0.597
       a = -1.000      CL =  0.7864
      Cm = -0.2048     CD =  0.00494   =>   CDf =  0.00350    CDp =  0.00145

 Side 1  free  transition at x/c =  0.6981   57
 Side 2  free  transition at x/c =  0.5780   51

  10   rms: 0.1444E-01   max: 0.1076E+00   D at   49  2
       a = -1.000      CL =  0.7959
      Cm = -0.2049     CD =  0.00493   =>   CDf =  0.00346    CDp =  0.00147
 VISCAL:  Convergence failed

.OPERva   c>   Calculating wake trajectory ...
 Calculating source influence matrix ...

 Solving BL system ...

 Side 1  free  transition at x/c =  0.6964   57
 Side 2  free  transition at x/c =  0.5786   51

   1   rms: 0.9567E-01   max: 0.8962E+00   D at   51  2   RLX: 0.931
       a = -0.500      CL =  0.8527
      Cm = -0.2061     CD =  0.00495   =>   CDf =  0.00346    CDp =  0.00149

 Side 1  free  transition at x/c =  0.6907   58
 Side 2  free  transition at x/c =  0.5883   50

   2   rms: 0.2809E-01   max: -.4218E+00   D at   50  2
       a = -0.500      CL =  0.8556
      Cm = -0.2059     CD =  0.00503   =>   CDf =  0.00353    CDp =  0.00150

 Side 1  free  transition at x/c =  0.6890   57
 Side 2  free  transition at x/c =  0.6044   51

   3   rms: 0.1372E-01   max: -.2297E+00   D at   51  2
       a = -0.500      CL =  0.8564
      Cm = -0.2061     CD =  0.00498   =>   CDf =  0.00346    CDp =  0.00151

 Side 1  free  transition at x/c =  0.6892   57
 Side 2  free  transition at x/c =  0.5997   51

   4   rms: 0.7302E-03   max: -.1629E-01   D at   51  2
       a = -0.500      CL =  0.8563
      Cm = -0.2060     CD =  0.00499   =>   CDf =  0.00346    CDp =  0.00152

 Side 1  free  transition at x/c =  0.6892   57
 Side 2  free  transition at x/c =  0.5996   51

   5   rms: 0.5215E-05   max: -.7387E-04   D at   51  2
       a = -0.500      CL =  0.8563
      Cm = -0.2060     CD =  0.00499   =>   CDf =  0.00346    CDp =  0.00152
 plradd ia,ip,cpol            2          82  0.55725002    

 Point added to stored polar  1
 Point written to save file  aux_files/XFOIL_Polar_Output.dat                
 Dump file unspecified or not available

.OPERva   c>   Calculating wake trajectory ...
 Calculating source influence matrix ...

 Solving BL system ...

 Side 1  free  transition at x/c =  0.6892   57
 Side 2  free  transition at x/c =  0.5996   51

   1   rms: 0.8039E-01   max: 0.5597E+00   D at   51  2
       a =  0.000      CL =  0.9173
      Cm = -0.2072     CD =  0.00499   =>   CDf =  0.00346    CDp =  0.00153

 Side 1  free  transition at x/c =  0.6789   57
 Side 2  free  transition at x/c =  0.6080   51

   2   rms: 0.1420E-01   max: -.2152E+00   D at   51  2
       a =  0.000      CL =  0.9164
      Cm = -0.2070     CD =  0.00505   =>   CDf =  0.00352    CDp =  0.00153

 Side 1  free  transition at x/c =  0.6811   57
 Side 2  free  transition at x/c =  0.6137   52

   3   rms: 0.2195E-02   max: 0.3389E-01   D at   51  2
       a =  0.000      CL =  0.9166
      Cm = -0.2071     CD =  0.00503   =>   CDf =  0.00346    CDp =  0.00157

 Side 1  free  transition at x/c =  0.6810   57
 Side 2  free  transition at x/c =  0.6134   52

   4   rms: 0.1154E-03   max: -.1973E-02   D at   52  2
       a =  0.000      CL =  0.9166
      Cm = -0.2071     CD =  0.00503   =>   CDf =  0.00346    CDp =  0.00157

 Side 1  free  transition at x/c =  0.6810   57
 Side 2  free  transition at x/c =  0.6134   52

   5   rms: 0.4668E-06   max: 0.4040E-05   D at   51  2
       a =  0.000      CL =  0.9166
      Cm = -0.2071     CD =  0.00503   =>   CDf =  0.00346    CDp =  0.00157
 plradd ia,ip,cpol            3          82  8.59099999E-02

 Point added to stored polar  1
 Point written to save file  aux_files/XFOIL_Polar_Output.dat                
 Dump file unspecified or not available

.OPERva   c>   Calculating wake trajectory ...
 Calculating source influence matrix ...

 Solving BL system ...

 Side 1  free  transition at x/c =  0.6810   57
 Side 2  free  transition at x/c =  0.6134   52

   1   rms: 0.7660E-01   max: 0.4101E+00   D at   52  2
       a =  0.500      CL =  0.9765
      Cm = -0.2081     CD =  0.00511   =>   CDf =  0.00344    CDp =  0.00167

 Side 1  free  transition at x/c =  0.6706   57
 Side 2  free  transition at x/c =  0.6242   51

   2   rms: 0.6214E-02   max: -.8375E-01   D at    2  1
       a =  0.500      CL =  0.9763
      Cm = -0.2081     CD =  0.00513   =>   CDf =  0.00348    CDp =  0.00165

 Side 1  free  transition at x/c =  0.6705   57
 Side 2  free  transition at x/c =  0.6237   51

   3   rms: 0.2825E-03   max: 0.3573E-02   D at    4  1
       a =  0.500      CL =  0.9763
      Cm = -0.2081     CD =  0.00513   =>   CDf =  0.00348    CDp =  0.00164

 Side 1  free  transition at x/c =  0.6705   57
 Side 2  free  transition at x/c =  0.6237   51

   4   rms: 0.3780E-06   max: -.2808E-05   T at   51  2
       a =  0.500      CL =  0.9763
      Cm = -0.2081     CD =  0.00513   =>   CDf =  0.00348    CDp =  0.00164
 plradd ia,ip,cpol            4          83  8.59099999E-02

 Point added to stored polar  1
 Point written to save file  aux_files/XFOIL_Polar_Output.dat                
 Dump file unspecified or not available

.OPERva   c>   Calculating wake trajectory ...
 Calculating source influence matrix ...

 Solving BL system ...

 Side 1  free  transition at x/c =  0.6705   57
 Side 2  free  transition at x/c =  0.6237   51

   1   rms: 0.7871E-01   max: 0.3601E+00   C at   51  2
       a =  1.000      CL =  1.0357
      Cm = -0.2090     CD =  0.00523   =>   CDf =  0.00346    CDp =  0.00177

 Side 1  free  transition at x/c =  0.6478   57
 Side 2  free  transition at x/c =  0.6254   50

   2   rms: 0.2069E-01   max: -.2703E+00   D at   50  2
       a =  1.000      CL =  1.0349
      Cm = -0.2088     CD =  0.00529   =>   CDf =  0.00360    CDp =  0.00169

 Side 1  free  transition at x/c =  0.6516   57
 Side 2  free  transition at x/c =  0.6300   51

   3   rms: 0.2562E-02   max: 0.2693E-01   D at   51  2
       a =  1.000      CL =  1.0352
      Cm = -0.2089     CD =  0.00526   =>   CDf =  0.00354    CDp =  0.00172

 Side 1  free  transition at x/c =  0.6518   57
 Side 2  free  transition at x/c =  0.6312   51

   4   rms: 0.1586E-03   max: 0.1683E-02   T at   51  2
       a =  1.000      CL =  1.0352
      Cm = -0.2089     CD =  0.00526   =>   CDf =  0.00353    CDp =  0.00173

 Side 1  free  transition at x/c =  0.6518   57
 Side 2  free  transition at x/c =  0.6311   51

   5   rms: 0.1069E-05   max: 0.1150E-04   C at   57  1
       a =  1.000      CL =  1.0352
      Cm = -0.2089     CD =  0.00526   =>   CDf =  0.00353    CDp =  0.00173
 plradd ia,ip,cpol            5          84  7.57699981E-02

 Point added to stored polar  1
 Point written to save file  aux_files/XFOIL_Polar_Output.dat                
 Dump file unspecified or not available

.OPERva   c>   BLs will be initialized on next point

.OPERva   c>   Calculating wake trajectory ...
 Calculating source influence matrix ...

 Solving BL system ...

 Initializing BL ...
    side            1  ...
 MRCHUE: Convergence failed at  51  side 1    Res =  0.2956E-04
 MRCHUE: Inverse mode at  85     Hk =   2.500
    side            2  ...
 MRCHUE: Inverse mode at  47     Hk =   4.745
 MRCHUE: Inverse mode at  48     Hk =   6.418
 MRCHUE: Inverse mode at  49     Hk =   8.051
 MRCHUE: Inverse mode at  50     Hk =   3.946
 MRCHUE: Inverse mode at  51     Hk =   2.500
 MRCHUE: Inverse mode at  82     Hk =   2.197
 MRCHUE: Inverse mode at  83     Hk =   2.165

 Side 1  free  transition at x/c =  0.5480   51
 Side 2  free  transition at x/c =  0.6173   50

   1   rms: 0.1131E+00   max: -.1622E+01   C at   51  1   RLX: 0.308
       a =  1.500      CL =  1.1411
      Cm = -0.2203     CD =  0.00566   =>   CDf =  0.00406    CDp =  0.00160

 Side 1  free  transition at x/c =  0.5566   51
 Side 2  free  transition at x/c =  0.6211   50

   2   rms: 0.1278E+00   max: -.2728E+01   C at   51  1   RLX: 0.183
       a =  1.500      CL =  1.1355
      Cm = -0.2191     CD =  0.00566   =>   CDf =  0.00402    CDp =  0.00164

 Side 1  free  transition at x/c =  0.5632   52
 Side 2  free  transition at x/c =  0.6228   50

   3   rms: 0.9250E-01   max: -.1635E+01   C at   52  1   RLX: 0.306
       a =  1.500      CL =  1.1267
      Cm = -0.2173     CD =  0.00563   =>   CDf =  0.00397    CDp =  0.00166

 Side 1  free  transition at x/c =  0.5709   52
 Side 2  free  transition at x/c =  0.6251   50

   4   rms: 0.9024E-01   max: -.2004E+01   C at   52  1   RLX: 0.249
       a =  1.500      CL =  1.1196
      Cm = -0.2157     CD =  0.00568   =>   CDf =  0.00394    CDp =  0.00174

 Side 1  free  transition at x/c =  0.5781   53
 Side 2  free  transition at x/c =  0.6262   51

   5   rms: 0.7594E-01   max: -.9629E+00   C at   53  1   RLX: 0.519
       a =  1.500      CL =  1.1084
      Cm = -0.2132     CD =  0.00558   =>   CDf =  0.00390    CDp =  0.00168

 Side 1  free  transition at x/c =  0.5866   53
 Side 2  free  transition at x/c =  0.6342   51

   6   rms: 0.3570E-01   max: -.7966E+00   C at   53  1   RLX: 0.628
       a =  1.500      CL =  1.0977
      Cm = -0.2107     CD =  0.00568   =>   CDf =  0.00383    CDp =  0.00185

 Side 1  free  transition at x/c =  0.5934   54
 Side 2  free  transition at x/c =  0.6350   51

   7   rms: 0.1159E-01   max: -.1646E+00   C at   54  1
       a =  1.500      CL =  1.0909
      Cm = -0.2092     CD =  0.00569   =>   CDf =  0.00379    CDp =  0.00190

 Side 1  free  transition at x/c =  0.5986   54
 Side 2  free  transition at x/c =  0.6354   51

   8   rms: 0.7380E-03   max: -.1518E-01   C at   54  1
       a =  1.500      CL =  1.0906
      Cm = -0.2091     CD =  0.00570   =>   CDf =  0.00376    CDp =  0.00193

 Side 1  free  transition at x/c =  0.5990   54
 Side 2  free  transition at x/c =  0.6354   51

   9   rms: 0.3451E-05   max: -.7274E-04   C at   54  1
       a =  1.500      CL =  1.0906
      Cm = -0.2091     CD =  0.00570   =>   CDf =  0.00376    CDp =  0.00194
 plradd ia,ip,cpol            6          84  7.57699981E-02

 Point added to stored polar  1
 Point written to save file  aux_files/XFOIL_Polar_Output.dat                
 Dump file unspecified or not available

.OPERva   c>   BLs will be initialized on next point

.OPERva   c>   Calculating wake trajectory ...
 Calculating source influence matrix ...

 Solving BL system ...

 Initializing BL ...
    side            1  ...
 MRCHUE: Inverse mode at  45     Hk =   2.500
 MRCHUE: Inverse mode at  86     Hk =   2.500
    side            2  ...
 MRCHUE: Inverse mode at  46     Hk =   4.724
 MRCHUE: Inverse mode at  47     Hk =   6.419
 MRCHUE: Inverse mode at  48     Hk =   8.073
 MRCHUE: Inverse mode at  49     Hk =   6.151
 MRCHUE: Inverse mode at  50     Hk =   2.500
 MRCHUE: Inverse mode at  81     Hk =   2.235
 MRCHUE: Inverse mode at  82     Hk =   2.204

 Side 1  free  transition at x/c =  0.4316   45
 Side 2  free  transition at x/c =  0.6215   49

   1   rms: 0.2096E+00   max: -.4811E+01   C at   45  1   RLX: 0.104
       a =  2.000      CL =  1.2043
      Cm = -0.2218     CD =  0.00638   =>   CDf =  0.00463    CDp =  0.00175

 Side 1  free  transition at x/c =  0.4369   46
 Side 2  free  transition at x/c =  0.6226   49

   2   rms: 0.1370E+00   max: -.2086E+01   C at   46  1   RLX: 0.240
       a =  2.000      CL =  1.1945
      Cm = -0.2199     CD =  0.00643   =>   CDf =  0.00460    CDp =  0.00183

 Side 1  free  transition at x/c =  0.4457   46
 Side 2  free  transition at x/c =  0.6250   49

   3   rms: 0.1264E+00   max: -.2725E+01   C at   46  1   RLX: 0.183
       a =  2.000      CL =  1.1864
      Cm = -0.2183     CD =  0.00655   =>   CDf =  0.00456    CDp =  0.00199

 Side 1  free  transition at x/c =  0.4520   47
 Side 2  free  transition at x/c =  0.6260   49

   4   rms: 0.7832E-01   max: -.7481E+00   C at   47  1   RLX: 0.668
       a =  2.000      CL =  1.1617
      Cm = -0.2131     CD =  0.00669   =>   CDf =  0.00453    CDp =  0.00216

 Side 1  free  transition at x/c =  0.4677   47
 Side 2  free  transition at x/c =  0.6350   50

   5   rms: 0.5475E-01   max: -.1228E+01   C at   47  1   RLX: 0.407
       a =  2.000      CL =  1.1519
      Cm = -0.2110     CD =  0.00679   =>   CDf =  0.00442    CDp =  0.00237

 Side 1  free  transition at x/c =  0.4768   48
 Side 2  free  transition at x/c =  0.6373   50

   6   rms: 0.2962E-01   max: -.5970E+00   C at   48  1   RLX: 0.837
       a =  2.000      CL =  1.1409
      Cm = -0.2086     CD =  0.00679   =>   CDf =  0.00436    CDp =  0.00243

 Side 1  free  transition at x/c =  0.4850   48
 Side 2  free  transition at x/c =  0.6398   50

   7   rms: 0.1220E-01   max: -.3072E+00   C at   48  1
       a =  2.000      CL =  1.1376
      Cm = -0.2078     CD =  0.00682   =>   CDf =  0.00432    CDp =  0.00250

 Side 1  free  transition at x/c =  0.4889   49
 Side 2  free  transition at x/c =  0.6403   50

   8   rms: 0.8162E-03   max: -.1482E-01   C at   49  1
       a =  2.000      CL =  1.1377
      Cm = -0.2079     CD =  0.00681   =>   CDf =  0.00429    CDp =  0.00251

 Side 1  free  transition at x/c =  0.4892   49
 Side 2  free  transition at x/c =  0.6403   50

   9   rms: 0.6497E-05   max: -.8478E-04   C at   49  1
       a =  2.000      CL =  1.1377
      Cm = -0.2079     CD =  0.00681   =>   CDf =  0.00429    CDp =  0.00251
 plradd ia,ip,cpol            7          85  7.57699981E-02

 Point added to stored polar  1
 Point written to save file  aux_files/XFOIL_Polar_Output.dat                
 Dump file unspecified or not available

.OPERva   c>   BLs will be initialized on next point

.OPERva   c>   Calculating wake trajectory ...
 Calculating source influence matrix ...

 Solving BL system ...

 Initializing BL ...
    side            1  ...
 MRCHUE: Inverse mode at  86     Hk =   2.500
    side            2  ...
 MRCHUE: Inverse mode at  47     Hk =   5.118
 MRCHUE: Inverse mode at  48     Hk =   6.766
 MRCHUE: Inverse mode at  49     Hk =   8.373
 MRCHUE: Inverse mode at  50     Hk =   4.680
 MRCHUE: Inverse mode at  51     Hk =   2.500
 MRCHUE: Inverse mode at  81     Hk =   2.257
 MRCHUE: Inverse mode at  82     Hk =   2.227

 Side 1  free  transition at x/c =  0.3466   41
 Side 2  free  transition at x/c =  0.6347   50

   1   rms: 0.1235E+00   max: 0.8519E+00   D at   41  1   RLX: 0.795
       a =  2.500      CL =  1.2196
      Cm = -0.2143     CD =  0.00752   =>   CDf =  0.00505    CDp =  0.00248

 Side 1  free  transition at x/c =  0.3608   41
 Side 2  free  transition at x/c =  0.6421   50

   2   rms: 0.4560E-01   max: -.6109E+00   C at   41  1   RLX: 0.818
       a =  2.500      CL =  1.1895
      Cm = -0.2079     CD =  0.00806   =>   CDf =  0.00497    CDp =  0.00309

 Side 1  free  transition at x/c =  0.3942   43
 Side 2  free  transition at x/c =  0.6437   51

   3   rms: 0.2859E-01   max: -.7006E+00   C at   43  1   RLX: 0.714
       a =  2.500      CL =  1.1869
      Cm = -0.2071     CD =  0.00776   =>   CDf =  0.00477    CDp =  0.00299

 Side 1  free  transition at x/c =  0.3986   44
 Side 2  free  transition at x/c =  0.6446   51

   4   rms: 0.3979E-02   max: 0.4401E-01   D at   44  1
       a =  2.500      CL =  1.1850
      Cm = -0.2067     CD =  0.00778   =>   CDf =  0.00474    CDp =  0.00304

 Side 1  free  transition at x/c =  0.4004   44
 Side 2  free  transition at x/c =  0.6449   51

   5   rms: 0.2581E-03   max: 0.3818E-02   D at   44  1
       a =  2.500      CL =  1.1849
      Cm = -0.2066     CD =  0.00779   =>   CDf =  0.00473    CDp =  0.00306

 Side 1  free  transition at x/c =  0.4005   44
 Side 2  free  transition at x/c =  0.6449   51

   6   rms: 0.4004E-05   max: 0.6346E-04   C at   44  1
       a =  2.500      CL =  1.1849
      Cm = -0.2066     CD =  0.00779   =>   CDf =  0.00473    CDp =  0.00306
 plradd ia,ip,cpol            8          85  6.61899969E-02

 Point added to stored polar  1
 Point written to save file  aux_files/XFOIL_Polar_Output.dat                
 Dump file unspecified or not available

.OPERva   c>   BLs will be initialized on next point

.OPERva   c>   Calculating wake trajectory ...
 Calculating source influence matrix ...

 Solving BL system ...

 Initializing BL ...
    side            1  ...
 MRCHUE: Inverse mode at  37     Hk =   2.500
 MRCHUE: Inverse mode at  86     Hk =   2.500
 MRCHUE: Inverse mode at  87     Hk =   2.500
    side            2  ...
 MRCHUE: Inverse mode at  46     Hk =   4.997
 MRCHUE: Inverse mode at  47     Hk =   6.664
 MRCHUE: Inverse mode at  48     Hk =   8.287
 MRCHUE: Inverse mode at  49     Hk =   6.629
 MRCHUE: Inverse mode at  50     Hk =   2.500
 MRCHUE: Inverse mode at  80     Hk =   2.274
 MRCHUE: Inverse mode at  81     Hk =   2.244

 Side 1  free  transition at x/c =  0.2757   37
 Side 2  free  transition at x/c =  0.6385   49

   1   rms: 0.2363E+00   max: -.5383E+01   C at   37  1   RLX: 0.093
       a =  3.000      CL =  1.3223
      Cm = -0.2236     CD =  0.00718   =>   CDf =  0.00541    CDp =  0.00177

 Side 1  free  transition at x/c =  0.2797   38
 Side 2  free  transition at x/c =  0.6392   49

   2   rms: 0.1408E+00   max: 0.1321E+01   D at   38  1   RLX: 0.416
       a =  3.000      CL =  1.2930
      Cm = -0.2179     CD =  0.00766   =>   CDf =  0.00539    CDp =  0.00228

 Side 1  free  transition at x/c =  0.2933   38
 Side 2  free  transition at x/c =  0.6420   49

   3   rms: 0.9946E-01   max: -.1899E+01   C at   38  1   RLX: 0.263
       a =  3.000      CL =  1.2771
      Cm = -0.2148     CD =  0.00807   =>   CDf =  0.00531    CDp =  0.00275

 Side 1  free  transition at x/c =  0.3053   39
 Side 2  free  transition at x/c =  0.6431   50

   4   rms: 0.8672E-01   max: -.1482E+01   C at   39  1   RLX: 0.337
       a =  3.000      CL =  1.2635
      Cm = -0.2120     CD =  0.00818   =>   CDf =  0.00524    CDp =  0.00294

 Side 1  free  transition at x/c =  0.3102   40
 Side 2  free  transition at x/c =  0.6466   50

   5   rms: 0.3969E-01   max: 0.2912E+00   D at   40  1
       a =  3.000      CL =  1.2333
      Cm = -0.2058     CD =  0.00867   =>   CDf =  0.00519    CDp =  0.00347

 Side 1  free  transition at x/c =  0.3316   41
 Side 2  free  transition at x/c =  0.6514   50

   6   rms: 0.3787E-02   max: 0.3700E-01   T at   50  2
       a =  3.000      CL =  1.2323
      Cm = -0.2055     CD =  0.00863   =>   CDf =  0.00504    CDp =  0.00359

 Side 1  free  transition at x/c =  0.3305   41
 Side 2  free  transition at x/c =  0.6505   50

   7   rms: 0.7945E-04   max: -.1245E-02   D at   50  2
       a =  3.000      CL =  1.2323
      Cm = -0.2055     CD =  0.00863   =>   CDf =  0.00505    CDp =  0.00359
 plradd ia,ip,cpol            9          86  6.61899969E-02

 Point added to stored polar  1
 Point written to save file  aux_files/XFOIL_Polar_Output.dat                
 Dump file unspecified or not available

.OPERva   c>   BLs will be initialized on next point

.OPERva   c>   Calculating wake trajectory ...
 Calculating source influence matrix ...

 Solving BL system ...

 Initializing BL ...
    side            1  ...
 MRCHUE: Inverse mode at  34     Hk =   3.985
 MRCHUE: Inverse mode at  35     Hk =   2.500
 MRCHUE: Inverse mode at  86     Hk =   2.500
 MRCHUE: Inverse mode at  87     Hk =   2.500
    side            2  ...
 MRCHUE: Inverse mode at  46     Hk =   4.925
 MRCHUE: Inverse mode at  47     Hk =   6.611
 MRCHUE: Inverse mode at  48     Hk =   8.250
 MRCHUE: Inverse mode at  49     Hk =   7.403
 MRCHUE: Inverse mode at  50     Hk =   2.500
 MRCHUE: Inverse mode at  80     Hk =   2.291
 MRCHUE: Inverse mode at  81     Hk =   2.261

 Side 1  free  transition at x/c =  0.2217   34
 Side 2  free  transition at x/c =  0.6398   49

   1   rms: 0.1573E+00   max: -.1329E+01   D at   35  1   RLX: 0.376
       a =  3.500      CL =  1.3433
      Cm = -0.2194     CD =  0.00820   =>   CDf =  0.00564    CDp =  0.00255

 Side 1  free  transition at x/c =  0.2264   34
 Side 2  free  transition at x/c =  0.6424   49

   2   rms: 0.1012E+00   max: -.8780E+00   D at   35  1   RLX: 0.569
       a =  3.500      CL =  1.3070
      Cm = -0.2110     CD =  0.00912   =>   CDf =  0.00563    CDp =  0.00349

 Side 1  free  transition at x/c =  0.2295   35
 Side 2  free  transition at x/c =  0.6472   50

   3   rms: 0.5762E-01   max: -.4775E+00   D at   34  1
       a =  3.500      CL =  1.2768
      Cm = -0.2039     CD =  0.00963   =>   CDf =  0.00561    CDp =  0.00402

 Side 1  free  transition at x/c =  0.2754   37
 Side 2  free  transition at x/c =  0.6552   50

   4   rms: 0.1821E-01   max: -.3906E+00   C at   37  1
       a =  3.500      CL =  1.2794
      Cm = -0.2042     CD =  0.00940   =>   CDf =  0.00533    CDp =  0.00407

 Side 1  free  transition at x/c =  0.2709   37
 Side 2  free  transition at x/c =  0.6536   50

   5   rms: 0.8082E-03   max: -.5103E-02   D at   36  1
       a =  3.500      CL =  1.2784
      Cm = -0.2041     CD =  0.00946   =>   CDf =  0.00535    CDp =  0.00411

 Side 1  free  transition at x/c =  0.2709   37
 Side 2  free  transition at x/c =  0.6536   50

   6   rms: 0.7899E-05   max: -.1619E-03   C at   37  1
       a =  3.500      CL =  1.2784
      Cm = -0.2041     CD =  0.00946   =>   CDf =  0.00535    CDp =  0.00412
 plradd ia,ip,cpol           10          86  5.71999997E-02

 Point added to stored polar  1
 Point written to save file  aux_files/XFOIL_Polar_Output.dat                
 Dump file unspecified or not available

.OPERva   c>   BLs will be initialized on next point

.OPERva   c>   Calculating wake trajectory ...
 Calculating source influence matrix ...

 Solving BL system ...

 Initializing BL ...
    side            1  ...
 MRCHUE: Inverse mode at  33     Hk =   2.500
 MRCHUE: Inverse mode at  87     Hk =   2.500
 MRCHUE: Inverse mode at  88     Hk =   2.500
    side            2  ...
 MRCHUE: Inverse mode at  45     Hk =   4.876
 MRCHUE: Inverse mode at  46     Hk =   6.580
 MRCHUE: Inverse mode at  47     Hk =   8.236
 MRCHUE: Inverse mode at  48     Hk =   7.908
 MRCHUE: Inverse mode at  49     Hk =   2.500
 MRCHUE: Inverse mode at  79     Hk =   2.297
 MRCHUE: Inverse mode at  80     Hk =   2.266

 Side 1  free  transition at x/c =  0.1943   33
 Side 2  free  transition at x/c =  0.6406   48

   1   rms: 0.1654E+00   max: -.1874E+01   C at   33  1   RLX: 0.267
       a =  4.000      CL =  1.4224
      Cm = -0.2225     CD =  0.00805   =>   CDf =  0.00587    CDp =  0.00218

 Side 1  free  transition at x/c =  0.1993   33
 Side 2  free  transition at x/c =  0.6423   48

   2   rms: 0.1177E+00   max: -.1117E+01   C at   33  1   RLX: 0.448
       a =  4.000      CL =  1.3824
      Cm = -0.2146     CD =  0.00904   =>   CDf =  0.00584    CDp =  0.00320

 Side 1  free  transition at x/c =  0.2130   34
 Side 2  free  transition at x/c =  0.6467   49
 idif Ue xi dudx           1  0.18623507      3.84426117E-03   48.444958    
 Uenew xinew           2  7.31703779E-03  1.51038170E-04

   3   rms: 0.7132E-01   max: -.5177E+00   C at   34  1   RLX: 0.966
       a =  4.000      CL =  1.3295
      Cm = -0.2038     CD =  0.01013   =>   CDf =  0.00581    CDp =  0.00432

 Side 1  free  transition at x/c =  0.2312   35
 Side 2  free  transition at x/c =  0.6582   50

   4   rms: 0.1581E-01   max: -.1933E+00   C at   50  2
       a =  4.000      CL =  1.3259
      Cm = -0.2029     CD =  0.01012   =>   CDf =  0.00557    CDp =  0.00454

 Side 1  free  transition at x/c =  0.2330   35
 Side 2  free  transition at x/c =  0.6564   50

   5   rms: 0.9944E-03   max: 0.1171E-01   D at   50  2
       a =  4.000      CL =  1.3255
      Cm = -0.2028     CD =  0.01014   =>   CDf =  0.00555    CDp =  0.00459

 Side 1  free  transition at x/c =  0.2328   35
 Side 2  free  transition at x/c =  0.6561   50

   6   rms: 0.3696E-05   max: -.4230E-04   D at   50  2
       a =  4.000      CL =  1.3255
      Cm = -0.2028     CD =  0.01014   =>   CDf =  0.00555    CDp =  0.00459
 plradd ia,ip,cpol           11          86  5.71999997E-02

 Point added to stored polar  1
 Point written to save file  aux_files/XFOIL_Polar_Output.dat                
 Dump file unspecified or not available

.OPERva   c>   BLs will be initialized on next point

.OPERva   c>   Calculating wake trajectory ...
 Calculating source influence matrix ...

 Solving BL system ...

 Initializing BL ...
    side            1  ...
 MRCHUE: Inverse mode at  30     Hk =   4.950
 MRCHUE: Inverse mode at  31     Hk =   2.500
 MRCHUE: Inverse mode at  86     Hk =   2.500
 MRCHUE: Inverse mode at  87     Hk =   2.500
 MRCHUE: Inverse mode at  88     Hk =   2.500
    side            2  ...
 MRCHUE: Inverse mode at  45     Hk =   4.842
 MRCHUE: Inverse mode at  46     Hk =   6.564
 MRCHUE: Inverse mode at  47     Hk =   8.235
 MRCHUE: Inverse mode at  48     Hk =   8.120
 MRCHUE: Inverse mode at  49     Hk =   2.500
 MRCHUE: Inverse mode at  79     Hk =   2.311
 MRCHUE: Inverse mode at  80     Hk =   2.281

 Side 1  free  transition at x/c =  0.1532   30
 Side 2  free  transition at x/c =  0.6408   48

   1   rms: 0.1780E+00   max: -.1219E+01   D at   31  1   RLX: 0.410
       a =  4.500      CL =  1.4528
      Cm = -0.2204     CD =  0.00897   =>   CDf =  0.00604    CDp =  0.00292

 Side 1  free  transition at x/c =  0.1564   30
 Side 2  free  transition at x/c =  0.6454   49

   2   rms: 0.1218E+00   max: -.8716E+00   D at   31  1   RLX: 0.574
       a =  4.500      CL =  1.4082
      Cm = -0.2102     CD =  0.01017   =>   CDf =  0.00602    CDp =  0.00415

 MRCHDU: Convergence failed at  31  side 1    Res =  0.7881E+00
 Side 1  free  transition at x/c =  0.1823   32
 Side 2  free  transition at x/c =  0.6563   49

   3   rms: 0.4718E-01   max: -.4634E+00   C at   32  1
       a =  4.500      CL =  1.3714
      Cm = -0.2014     CD =  0.01090   =>   CDf =  0.00586    CDp =  0.00503

 Side 1  free  transition at x/c =  0.1852   33
 Side 2  free  transition at x/c =  0.6585   49

   4   rms: 0.2334E-01   max: -.3379E+00   D at   32  1
       a =  4.500      CL =  1.3703
      Cm = -0.2011     CD =  0.01086   =>   CDf =  0.00583    CDp =  0.00504

 Side 1  free  transition at x/c =  0.2111   34
 Side 2  free  transition at x/c =  0.6583   49

   5   rms: 0.1100E-01   max: -.2105E+00   D at   34  1
       a =  4.500      CL =  1.3739
      Cm = -0.2018     CD =  0.01067   =>   CDf =  0.00565    CDp =  0.00502

 Side 1  free  transition at x/c =  0.2003   34
 Side 2  free  transition at x/c =  0.6583   49

   6   rms: 0.3003E-02   max: 0.5112E-01   D at   34  1
       a =  4.500      CL =  1.3717
      Cm = -0.2014     CD =  0.01079   =>   CDf =  0.00572    CDp =  0.00507

 Side 1  free  transition at x/c =  0.2019   34
 Side 2  free  transition at x/c =  0.6583   49

   7   rms: 0.3565E-03   max: -.6759E-02   D at   34  1
       a =  4.500      CL =  1.3717
      Cm = -0.2014     CD =  0.01079   =>   CDf =  0.00571    CDp =  0.00508

 Side 1  free  transition at x/c =  0.2018   34
 Side 2  free  transition at x/c =  0.6583   49

   8   rms: 0.3242E-05   max: -.4663E-04   D at   34  1
       a =  4.500      CL =  1.3717
      Cm = -0.2014     CD =  0.01079   =>   CDf =  0.00571    CDp =  0.00508
 plradd ia,ip,cpol           12          87  5.71999997E-02

 Point added to stored polar  1
 Point written to save file  aux_files/XFOIL_Polar_Output.dat                
 Dump file unspecified or not available

.OPERva   c>   BLs will be initialized on next point

.OPERva   c>   Calculating wake trajectory ...
 Calculating source influence matrix ...

 Solving BL system ...

 Initializing BL ...
    side            1  ...
 MRCHUE: Inverse mode at  28     Hk =   6.348
 MRCHUE: Inverse mode at  29     Hk =   2.500
 MRCHUE: Inverse mode at  86     Hk =   2.500
 MRCHUE: Inverse mode at  87     Hk =   2.500
 MRCHUE: Inverse mode at  88     Hk =   2.500
 MRCHUE: Inverse mode at  89     Hk =   2.500
    side            2  ...
 MRCHUE: Inverse mode at  44     Hk =   4.816
 MRCHUE: Inverse mode at  45     Hk =   6.556
 MRCHUE: Inverse mode at  46     Hk =   8.244
 MRCHUE: Inverse mode at  47     Hk =   8.198
 MRCHUE: Inverse mode at  48     Hk =   2.500
 MRCHUE: Inverse mode at  78     Hk =   2.316
 MRCHUE: Inverse mode at  79     Hk =   2.286

 Side 1  free  transition at x/c =  0.1260   29
 Side 2  free  transition at x/c =  0.6409   47
 idif Ue xi dudx           1  0.15934007      4.29081917E-03   37.135117    
 Uenew xinew           2  3.36440658E-04  9.05990601E-06

   1   rms: 0.1790E+00   max: 0.7346E+00   D at   85  2   RLX: 0.816
       a =  5.000      CL =  1.4667
      Cm = -0.2107     CD =  0.01044   =>   CDf =  0.00644    CDp =  0.00400

 Side 1  free  transition at x/c =  0.1451   30
 Side 2  free  transition at x/c =  0.6575   49

   2   rms: 0.8604E+00   max: -.1515E+02   D at    2  2   RLX: 0.033
       a =  5.000      CL =  1.4643
      Cm = -0.2103     CD =  0.01107   =>   CDf =  0.00612    CDp =  0.00494

 Side 1  free  transition at x/c =  0.1460   30
 Side 2  free  transition at x/c =  0.6576   49

   3   rms: 0.5717E-01   max: 0.5264E+00   D at   30  1
       a =  5.000      CL =  1.4164
      Cm = -0.1998     CD =  0.01152   =>   CDf =  0.00612    CDp =  0.00540

 Side 1  free  transition at x/c =  0.1836   32
 Side 2  free  transition at x/c =  0.6608   50

   4   rms: 0.2034E-01   max: -.4085E+00   C at   32  1
       a =  5.000      CL =  1.4190
      Cm = -0.2002     CD =  0.01130   =>   CDf =  0.00580    CDp =  0.00549

 Side 1  free  transition at x/c =  0.1768   32
 Side 2  free  transition at x/c =  0.6621   50

   5   rms: 0.2742E-02   max: 0.2691E-01   C at   32  1
       a =  5.000      CL =  1.4166
      Cm = -0.1997     CD =  0.01142   =>   CDf =  0.00583    CDp =  0.00559

 Side 1  free  transition at x/c =  0.1759   32
 Side 2  free  transition at x/c =  0.6619   50

   6   rms: 0.4933E-04   max: 0.6112E-03   D at   32  1
       a =  5.000      CL =  1.4166
      Cm = -0.1997     CD =  0.01142   =>   CDf =  0.00583    CDp =  0.00559
 plradd ia,ip,cpol           13          87  4.88100015E-02

 Point added to stored polar  1
 Point written to save file  aux_files/XFOIL_Polar_Output.dat                
 Dump file unspecified or not available

.OPERva   c>   BLs will be initialized on next point

.OPERva   c>   Calculating wake trajectory ...
 Calculating source influence matrix ...

 Solving BL system ...

 Initializing BL ...
    side            1  ...
 MRCHUE: Inverse mode at  28     Hk =   6.641
 MRCHUE: Inverse mode at  29     Hk =   2.500
 MRCHUE: Inverse mode at  85     Hk =   2.500
 MRCHUE: Inverse mode at  86     Hk =   2.500
 MRCHUE: Inverse mode at  87     Hk =   2.500
 MRCHUE: Inverse mode at  88     Hk =   2.500
 MRCHUE: Inverse mode at  89     Hk =   2.500
    side            2  ...
 MRCHUE: Inverse mode at  44     Hk =   4.798
 MRCHUE: Inverse mode at  45     Hk =   6.555
 MRCHUE: Inverse mode at  46     Hk =   8.258
 MRCHUE: Inverse mode at  47     Hk =   8.221
 MRCHUE: Inverse mode at  48     Hk =   2.500
 MRCHUE: Inverse mode at  78     Hk =   2.324
 MRCHUE: Inverse mode at  79     Hk =   2.295

 Side 1  free  transition at x/c =  0.1196   29
 Side 2  free  transition at x/c =  0.6410   47

   1   rms: 0.2713E+00   max: -.1705E+01   T at   29  1   RLX: 0.293
       a =  5.500      CL =  1.5923
      Cm = -0.2262     CD =  0.00854   =>   CDf =  0.00628    CDp =  0.00225

 MRCHDU: Convergence failed at  29  side 1    Res =  0.2526E+01
 MRCHDU: Convergence failed at  30  side 1    Res =  0.2792E+01
 Side 1  free  transition at x/c =  0.1283   29
 Side 2  free  transition at x/c =  0.6445   48

   2   rms: 0.7081E+00   max: 0.1130E+02   C at   31  1   RLX: 0.133
       a =  5.500      CL =  1.5917
      Cm = -0.2222     CD =  0.00871   =>   CDf =  0.00593    CDp =  0.00277

 Side 1  free  transition at x/c =  0.1301   29
 Side 2  free  transition at x/c =  0.6479   48

   3   rms: 0.1331E+00   max: 0.5337E+00   D at   86  2   RLX: 0.949
       a =  5.500      CL =  1.4838
      Cm = -0.2032     CD =  0.01168   =>   CDf =  0.00628    CDp =  0.00540

 MRCHDU: Convergence failed at  49  side 2    Res =  0.2907E+01
 Side 1  free  transition at x/c =  0.1548   31
 Side 2  free  transition at x/c =  0.6682   49

   4   rms: 0.3706E-01   max: 0.5215E+00   C at   49  2
       a =  5.500      CL =  1.4627
      Cm = -0.1984     CD =  0.01203   =>   CDf =  0.00593    CDp =  0.00610

 Side 1  free  transition at x/c =  0.1565   31
 Side 2  free  transition at x/c =  0.6652   49

   5   rms: 0.8793E-02   max: -.9283E-01   D at   49  2
       a =  5.500      CL =  1.4591
      Cm = -0.1976     CD =  0.01205   =>   CDf =  0.00592    CDp =  0.00612

 Side 1  free  transition at x/c =  0.1564   31
 Side 2  free  transition at x/c =  0.6658   49

   6   rms: 0.1984E-03   max: 0.2099E-02   T at   49  2
       a =  5.500      CL =  1.4591
      Cm = -0.1976     CD =  0.01205   =>   CDf =  0.00592    CDp =  0.00613

 Side 1  free  transition at x/c =  0.1564   31
 Side 2  free  transition at x/c =  0.6658   49

   7   rms: 0.7832E-06   max: -.8185E-05   C at   31  1
       a =  5.500      CL =  1.4591
      Cm = -0.1976     CD =  0.01205   =>   CDf =  0.00592    CDp =  0.00613
 plradd ia,ip,cpol           14          88  4.88100015E-02

 Point added to stored polar  1
 Point written to save file  aux_files/XFOIL_Polar_Output.dat                
 Dump file unspecified or not available

.OPERva   c>   BLs will be initialized on next point

.OPERva   c>   Calculating wake trajectory ...
 Calculating source influence matrix ...

 Solving BL system ...

 Initializing BL ...
    side            1  ...
 MRCHUE: Inverse mode at  28     Hk =   6.482
 MRCHUE: Inverse mode at  29     Hk =   2.500
 MRCHUE: Inverse mode at  85     Hk =   2.500
 MRCHUE: Inverse mode at  86     Hk =   2.500
 MRCHUE: Inverse mode at  87     Hk =   2.500
 MRCHUE: Inverse mode at  88     Hk =   2.500
 MRCHUE: Inverse mode at  89     Hk =   2.500
 MRCHUE: Inverse mode at  90     Hk =   2.500
    side            2  ...
 MRCHUE: Inverse mode at  44     Hk =   5.458
 MRCHUE: Inverse mode at  45     Hk =   7.150
 MRCHUE: Inverse mode at  46     Hk =   8.797
 MRCHUE: Inverse mode at  47     Hk =   3.803
 MRCHUE: Inverse mode at  48     Hk =   2.500
 MRCHUE: Inverse mode at  77     Hk =   2.326
 MRCHUE: Inverse mode at  78     Hk =   2.297

 Side 1  free  transition at x/c =  0.1093   29
 Side 2  free  transition at x/c =  0.6487   47

   1   rms: 0.2132E+00   max: -.1007E+01   T at   29  1   RLX: 0.496
       a =  6.000      CL =  1.6207
      Cm = -0.2215     CD =  0.00965   =>   CDf =  0.00636    CDp =  0.00329

 Side 1  free  transition at x/c =  0.1202   30
 Side 2  free  transition at x/c =  0.6557   47
 idif Ue xi dudx           1  0.18231718      6.05487823E-03   30.110792    
 Uenew xinew           2  3.54677141E-02  1.17790699E-03

   2   rms: 0.1219E+00   max: -.5066E+00   D at   48  2   RLX: 0.987
       a =  6.000      CL =  1.5228
      Cm = -0.2002     CD =  0.01221   =>   CDf =  0.00646    CDp =  0.00575

 MRCHDU: Convergence failed at  49  side 2    Res =  0.3778E+01
 Side 1  free  transition at x/c =  0.1603   32
 Side 2  free  transition at x/c =  0.6683   49

   3   rms: 0.4080E-01   max: 0.4849E+00   C at   49  2
       a =  6.000      CL =  1.5053
      Cm = -0.1963     CD =  0.01255   =>   CDf =  0.00588    CDp =  0.00667

 Side 1  free  transition at x/c =  0.1455   31
 Side 2  free  transition at x/c =  0.6687   49

   4   rms: 0.9806E-02   max: -.5184E-01   D at   49  2
       a =  6.000      CL =  1.4999
      Cm = -0.1952     CD =  0.01266   =>   CDf =  0.00598    CDp =  0.00668

 Side 1  free  transition at x/c =  0.1436   30
 Side 2  free  transition at x/c =  0.6690   49

   5   rms: 0.8526E-03   max: -.1893E-01   C at   30  1
       a =  6.000      CL =  1.5001
      Cm = -0.1952     CD =  0.01265   =>   CDf =  0.00597    CDp =  0.00667

 Side 1  free  transition at x/c =  0.1436   30
 Side 2  free  transition at x/c =  0.6690   49

   6   rms: 0.3298E-05   max: 0.2266E-04   C at   30  1
       a =  6.000      CL =  1.5001
      Cm = -0.1952     CD =  0.01265   =>   CDf =  0.00597    CDp =  0.00667
 plradd ia,ip,cpol           15          88  4.10399996E-02

 Point added to stored polar  1
 Point written to save file  aux_files/XFOIL_Polar_Output.dat                
 Dump file unspecified or not available

.OPERva   c>   BLs will be initialized on next point

.OPERva   c>   Calculating wake trajectory ...
 Calculating source influence matrix ...

 Solving BL system ...

 Initializing BL ...
    side            1  ...
 MRCHUE: Inverse mode at  27     Hk =   6.356
 MRCHUE: Inverse mode at  28     Hk =   2.500
 MRCHUE: Inverse mode at  84     Hk =   2.500
 MRCHUE: Inverse mode at  85     Hk =   2.500
 MRCHUE: Inverse mode at  86     Hk =   2.500
 MRCHUE: Inverse mode at  87     Hk =   2.500
 MRCHUE: Inverse mode at  88     Hk =   2.500
 MRCHUE: Inverse mode at  89     Hk =   2.500
 MRCHUE: Inverse mode at  90     Hk =   2.500
    side            2  ...
 MRCHUE: Inverse mode at  44     Hk =   5.183
 MRCHUE: Inverse mode at  45     Hk =   6.887
 MRCHUE: Inverse mode at  46     Hk =   8.542
 MRCHUE: Inverse mode at  47     Hk =   5.273
 MRCHUE: Inverse mode at  48     Hk =   2.500
 MRCHUE: Inverse mode at  77     Hk =   2.333
 MRCHUE: Inverse mode at  78     Hk =   2.304

 Side 1  free  transition at x/c =  0.0991   28
 Side 2  free  transition at x/c =  0.6521   47

   1   rms: 0.2156E+00   max: -.8592E+00   T at   28  1   RLX: 0.582
       a =  6.500      CL =  1.6638
      Cm = -0.2195     CD =  0.01025   =>   CDf =  0.00644    CDp =  0.00381

 Side 1  free  transition at x/c =  0.1100   29
 Side 2  free  transition at x/c =  0.6594   48

   2   rms: 0.1373E+00   max: 0.6183E+00   D at   29  1   RLX: 0.892
       a =  6.500      CL =  1.5769
      Cm = -0.2007     CD =  0.01252   =>   CDf =  0.00636    CDp =  0.00616

 Side 1  free  transition at x/c =  0.1476   32
 Side 2  free  transition at x/c =  0.6880   49

   3   rms: 0.6500E-01   max: -.7389E+00   C at   49  2   RLX: 0.677
       a =  6.500      CL =  1.5549
      Cm = -0.1951     CD =  0.01299   =>   CDf =  0.00594    CDp =  0.00706

 Side 1  free  transition at x/c =  0.1405   31
 Side 2  free  transition at x/c =  0.6756   49

   4   rms: 0.2536E-01   max: -.2065E+00   D at   31  1
       a =  6.500      CL =  1.5392
      Cm = -0.1924     CD =  0.01324   =>   CDf =  0.00596    CDp =  0.00728

 Side 1  free  transition at x/c =  0.1342   31
 Side 2  free  transition at x/c =  0.6700   48
 idif Ue xi dudx           1  0.14328621      4.99689579E-03   28.675045    
 Uenew xinew           2  3.43884178E-03  1.19924545E-04

   5   rms: 0.2152E-01   max: -.2561E+00   D at   48  2
       a =  6.500      CL =  1.5307
      Cm = -0.1906     CD =  0.01328   =>   CDf =  0.00617    CDp =  0.00712

 Side 1  free  transition at x/c =  0.1345   30
 Side 2  free  transition at x/c =  0.6724   49

   6   rms: 0.3347E-02   max: -.2159E-01   D at   85  2
       a =  6.500      CL =  1.5334
      Cm = -0.1912     CD =  0.01330   =>   CDf =  0.00600    CDp =  0.00730

 Side 1  free  transition at x/c =  0.1342   30
 Side 2  free  transition at x/c =  0.6720   49

   7   rms: 0.3882E-03   max: 0.4128E-02   D at    6  2
       a =  6.500      CL =  1.5335
      Cm = -0.1912     CD =  0.01330   =>   CDf =  0.00600    CDp =  0.00730

 Side 1  free  transition at x/c =  0.1342   30
 Side 2  free  transition at x/c =  0.6720   49

   8   rms: 0.8205E-06   max: 0.5700E-05   D at   30  1
       a =  6.500      CL =  1.5335
      Cm = -0.1912     CD =  0.01330   =>   CDf =  0.00600    CDp =  0.00730
 plradd ia,ip,cpol           16          88  3.38900015E-02

 Point added to stored polar  1
 Point written to save file  aux_files/XFOIL_Polar_Output.dat                
 Dump file unspecified or not available

.OPERva   c>   BLs will be initialized on next point

.OPERva   c>   Calculating wake trajectory ...
 Calculating source influence matrix ...

 Solving BL system ...

 Initializing BL ...
    side            1  ...
 MRCHUE: Inverse mode at  28     Hk =   6.487
 MRCHUE: Inverse mode at  29     Hk =   2.500
 MRCHUE: Inverse mode at  84     Hk =   2.500
 MRCHUE: Inverse mode at  85     Hk =   2.500
 MRCHUE: Inverse mode at  86     Hk =   2.500
 MRCHUE: Inverse mode at  87     Hk =   2.500
 MRCHUE: Inverse mode at  88     Hk =   2.500
 MRCHUE: Inverse mode at  89     Hk =   2.500
 MRCHUE: Inverse mode at  90     Hk =   2.500
 MRCHUE: Inverse mode at  91     Hk =   2.500
    side            2  ...
 MRCHUE: Inverse mode at  43     Hk =   5.072
 MRCHUE: Inverse mode at  44     Hk =   6.791
 MRCHUE: Inverse mode at  45     Hk =   8.457
 MRCHUE: Inverse mode at  46     Hk =   5.944
 MRCHUE: Inverse mode at  47     Hk =   2.500
 MRCHUE: Inverse mode at  76     Hk =   2.341
 MRCHUE: Inverse mode at  77     Hk =   2.311

 Side 1  free  transition at x/c =  0.0958   28
 Side 2  free  transition at x/c =  0.6535   46
 idif Ue xi dudx           1  0.12722123      5.53321838E-03   22.992266    
 Uenew xinew           2  1.14569266E-03  4.98294830E-05

   1   rms: 0.2265E+00   max: 0.9570E+00   D at   83  2   RLX: 0.537
       a =  7.000      CL =  1.7217
      Cm = -0.2217     CD =  0.01056   =>   CDf =  0.00658    CDp =  0.00398

 Side 1  free  transition at x/c =  0.0969   28
 Side 2  free  transition at x/c =  0.6614   48

   2   rms: 0.4613E+00   max: -.7563E+01   T at    2  2   RLX: 0.066
       a =  7.000      CL =  1.7140
      Cm = -0.2202     CD =  0.01124   =>   CDf =  0.00638    CDp =  0.00486

 Side 1  free  transition at x/c =  0.0975   28
 Side 2  free  transition at x/c =  0.6624   48

   3   rms: 0.1341E+00   max: -.8208E+00   D at   28  1   RLX: 0.609
       a =  7.000      CL =  1.6502
      Cm = -0.2058     CD =  0.01249   =>   CDf =  0.00638    CDp =  0.00612

 Side 1  free  transition at x/c =  0.1141   29
 Side 2  free  transition at x/c =  0.6718   48

   4   rms: 0.7001E-01   max: 0.6905E+00   D at   29  1
       a =  7.000      CL =  1.5867
      Cm = -0.1915     CD =  0.01365   =>   CDf =  0.00621    CDp =  0.00744

 Side 1  free  transition at x/c =  0.1195   30
 Side 2  free  transition at x/c =  0.6745   48

   5   rms: 0.3188E-01   max: -.2320E+00   D at   29  1
       a =  7.000      CL =  1.5596
      Cm = -0.1859     CD =  0.01407   =>   CDf =  0.00611    CDp =  0.00796

 Side 1  free  transition at x/c =  0.1292   30
 Side 2  free  transition at x/c =  0.6745   48

   6   rms: 0.2003E-01   max: -.2945E+00   D at   30  1
       a =  7.000      CL =  1.5718
      Cm = -0.1884     CD =  0.01394   =>   CDf =  0.00599    CDp =  0.00795

 Side 1  free  transition at x/c =  0.1254   30
 Side 2  free  transition at x/c =  0.6745   48

   7   rms: 0.2009E-02   max: 0.1176E-01   D at   86  1
       a =  7.000      CL =  1.5699
      Cm = -0.1881     CD =  0.01405   =>   CDf =  0.00603    CDp =  0.00802

 Side 1  free  transition at x/c =  0.1254   30
 Side 2  free  transition at x/c =  0.6744   48

   8   rms: 0.2013E-04   max: 0.1794E-03   D at   87  1
       a =  7.000      CL =  1.5699
      Cm = -0.1881     CD =  0.01405   =>   CDf =  0.00603    CDp =  0.00802
 plradd ia,ip,cpol           17          89  3.38900015E-02

 Point added to stored polar  1
 Point written to save file  aux_files/XFOIL_Polar_Output.dat                
 Dump file unspecified or not available

.OPERva   c>   BLs will be initialized on next point

.OPERva   c>   Calculating wake trajectory ...
 Calculating source influence matrix ...

 Solving BL system ...

 Initializing BL ...
    side            1  ...
 MRCHUE: Inverse mode at  27     Hk =   6.380
 MRCHUE: Inverse mode at  28     Hk =   2.500
 MRCHUE: Inverse mode at  83     Hk =   2.500
 MRCHUE: Inverse mode at  84     Hk =   2.500
 MRCHUE: Inverse mode at  85     Hk =   2.500
 MRCHUE: Inverse mode at  86     Hk =   2.500
 MRCHUE: Inverse mode at  87     Hk =   2.500
 MRCHUE: Inverse mode at  88     Hk =   2.500
 MRCHUE: Inverse mode at  89     Hk =   2.500
 MRCHUE: Inverse mode at  90     Hk =   2.500
 MRCHUE: Inverse mode at  91     Hk =   2.500
    side            2  ...
 MRCHUE: Inverse mode at  43     Hk =   5.002
 MRCHUE: Inverse mode at  44     Hk =   6.735
 MRCHUE: Inverse mode at  45     Hk =   8.413
 MRCHUE: Inverse mode at  46     Hk =   6.476
 MRCHUE: Inverse mode at  47     Hk =   2.500
 MRCHUE: Inverse mode at  76     Hk =   2.346
 MRCHUE: Inverse mode at  77     Hk =   2.317

 Side 1  free  transition at x/c =  0.0856   27
 Side 2  free  transition at x/c =  0.6545   46

   1   rms: 0.2388E+00   max: 0.1038E+01   D at   83  2   RLX: 0.608
       a =  7.500      CL =  1.7656
      Cm = -0.2201     CD =  0.01122   =>   CDf =  0.00649    CDp =  0.00473

 Side 1  free  transition at x/c =  0.0866   28
 Side 2  free  transition at x/c =  0.6667   47

   2   rms: 0.1371E+00   max: -.1003E+01   D at   28  1   RLX: 0.498
       a =  7.500      CL =  1.7060
      Cm = -0.2071     CD =  0.01302   =>   CDf =  0.00643    CDp =  0.00659

 MRCHDU: Convergence failed at  28  side 1    Res =  0.2881E+01
 Side 1  free  transition at x/c =  0.0928   28
 Side 2  free  transition at x/c =  0.6721   47
 idif Ue xi dudx           1  0.15554428      6.47521019E-03   24.021503    
 Uenew xinew           2  2.38250382E-02  9.91821289E-04

   3   rms: 0.9089E-01   max: -.4212E+00   D at   27  1
       a =  7.500      CL =  1.6111
      Cm = -0.1862     CD =  0.01483   =>   CDf =  0.00650    CDp =  0.00833

 Side 1  free  transition at x/c =  0.1296   30
 Side 2  free  transition at x/c =  0.6776   49

   4   rms: 0.3362E-01   max: -.5024E+00   C at   30  1   RLX: 0.995
       a =  7.500      CL =  1.6148
      Cm = -0.1866     CD =  0.01446   =>   CDf =  0.00598    CDp =  0.00848

 Side 1  free  transition at x/c =  0.1195   30
 Side 2  free  transition at x/c =  0.6790   49

   5   rms: 0.1312E-01   max: -.9194E-01   D at   30  1
       a =  7.500      CL =  1.6058
      Cm = -0.1851     CD =  0.01493   =>   CDf =  0.00604    CDp =  0.00890

 Side 1  free  transition at x/c =  0.1166   29
 Side 2  free  transition at x/c =  0.6787   49

   6   rms: 0.3359E-02   max: -.5891E-01   C at   29  1
       a =  7.500      CL =  1.6069
      Cm = -0.1853     CD =  0.01486   =>   CDf =  0.00603    CDp =  0.00883

 Side 1  free  transition at x/c =  0.1172   29
 Side 2  free  transition at x/c =  0.6787   49

   7   rms: 0.4128E-04   max: -.7018E-03   D at   29  1
       a =  7.500      CL =  1.6070
      Cm = -0.1853     CD =  0.01487   =>   CDf =  0.00603    CDp =  0.00883
 plradd ia,ip,cpol           18          89  2.73599997E-02

 Point added to stored polar  1
 Point written to save file  aux_files/XFOIL_Polar_Output.dat                
 Dump file unspecified or not available

.OPERva   c>   BLs will be initialized on next point

.OPERva   c>   Calculating wake trajectory ...
 Calculating source influence matrix ...

 Solving BL system ...

 Initializing BL ...
    side            1  ...
 MRCHUE: Inverse mode at  28     Hk =   2.500
 MRCHUE: Inverse mode at  84     Hk =   2.500
 MRCHUE: Inverse mode at  85     Hk =   2.500
 MRCHUE: Inverse mode at  86     Hk =   2.500
 MRCHUE: Inverse mode at  87     Hk =   2.500
 MRCHUE: Inverse mode at  88     Hk =   2.500
 MRCHUE: Inverse mode at  89     Hk =   2.500
 MRCHUE: Inverse mode at  90     Hk =   2.500
 MRCHUE: Inverse mode at  91     Hk =   2.500
 MRCHUE: Inverse mode at  92     Hk =   2.500
    side            2  ...
 MRCHUE: Inverse mode at  42     Hk =   4.952
 MRCHUE: Inverse mode at  43     Hk =   6.699
 MRCHUE: Inverse mode at  44     Hk =   8.390
 MRCHUE: Inverse mode at  45     Hk =   7.032
 MRCHUE: Inverse mode at  46     Hk =   2.500
 MRCHUE: Inverse mode at  75     Hk =   2.346
 MRCHUE: Inverse mode at  76     Hk =   2.316

 Side 1  free  transition at x/c =  0.0887   29
 Side 2  free  transition at x/c =  0.6555   45

   1   rms: 0.4760E+00   max: 0.7496E+01   D at   29  1   RLX: 0.095
       a =  8.000      CL =  1.9220
      Cm = -0.2388     CD =  0.00823   =>   CDf =  0.00654    CDp =  0.00169

 Side 1  free  transition at x/c =  0.0903   29
 Side 2  free  transition at x/c =  0.6566   45

   2   rms: 0.2916E+00   max: -.3731E+01   C at   29  1   RLX: 0.134
       a =  8.000      CL =  1.9005
      Cm = -0.2348     CD =  0.00891   =>   CDf =  0.00652    CDp =  0.00239

 Side 1  free  transition at x/c =  0.0949   29
 Side 2  free  transition at x/c =  0.6579   45
 idif Ue xi dudx           1  0.12525001      6.71231747E-03   18.659727    
 Uenew xinew           2  1.13623003E-02  6.08921051E-04

   3   rms: 0.2008E+00   max: -.1144E+01   C at   29  1   RLX: 0.437
       a =  8.000      CL =  1.8301
      Cm = -0.2209     CD =  0.01095   =>   CDf =  0.00666    CDp =  0.00429

 Side 1  free  transition at x/c =  0.0970   29
 Side 2  free  transition at x/c =  0.6652   47

   4   rms: 0.1463E+00   max: -.7864E+00   D at    2  2   RLX: 0.636
       a =  8.000      CL =  1.7462
      Cm = -0.2038     CD =  0.01328   =>   CDf =  0.00639    CDp =  0.00689

 Side 1  free  transition at x/c =  0.1057   29
 Side 2  free  transition at x/c =  0.6747   47
 idif Ue xi dudx           1  0.12994662      5.58876991E-03   23.251381    
 Uenew xinew           2  2.45025405E-03  1.05381012E-04

   5   rms: 0.1365E+00   max: 0.5446E+00   D at   81  2
       a =  8.000      CL =  1.6014
      Cm = -0.1732     CD =  0.01536   =>   CDf =  0.00640    CDp =  0.00896

 Side 1  free  transition at x/c =  0.1076   28
 Side 2  free  transition at x/c =  0.6818   49

   6   rms: 0.7550E-01   max: 0.1101E+01   T at    2  2   RLX: 0.913
       a =  8.000      CL =  1.6366
      Cm = -0.1813     CD =  0.01597   =>   CDf =  0.00587    CDp =  0.01010

 Side 1  free  transition at x/c =  0.1095   30
 Side 2  free  transition at x/c =  0.6832   48

   7   rms: 0.6362E-02   max: -.4891E-01   D at   81  2
       a =  8.000      CL =  1.6418
      Cm = -0.1823     CD =  0.01584   =>   CDf =  0.00604    CDp =  0.00981

 Side 1  free  transition at x/c =  0.1088   30
 Side 2  free  transition at x/c =  0.6833   48

   8   rms: 0.3875E-03   max: -.3656E-02   D at    4  1
       a =  8.000      CL =  1.6419
      Cm = -0.1823     CD =  0.01584   =>   CDf =  0.00605    CDp =  0.00980

 Side 1  free  transition at x/c =  0.1088   30
 Side 2  free  transition at x/c =  0.6833   48

   9   rms: 0.2067E-05   max: -.8696E-05   T at   74  2
       a =  8.000      CL =  1.6419
      Cm = -0.1823     CD =  0.01584   =>   CDf =  0.00605    CDp =  0.00980
 plradd ia,ip,cpol           19          90  2.14699991E-02

 Point added to stored polar  1
 Point written to save file  aux_files/XFOIL_Polar_Output.dat                
 Dump file unspecified or not available

.OPERva   c>   BLs will be initialized on next point

.OPERva   c>   Calculating wake trajectory ...
 Calculating source influence matrix ...

 Solving BL system ...

 Initializing BL ...
    side            1  ...
 MRCHUE: Inverse mode at  11     Hk =   9.071
 MRCHUE: Inverse mode at  12     Hk =  11.312
 MRCHUE: Inverse mode at  13     Hk =   3.412
 MRCHUE: Inverse mode at  14     Hk =   2.500
 MRCHUE: Inverse mode at  82     Hk =   2.500
 MRCHUE: Inverse mode at  83     Hk =   2.500
 MRCHUE: Inverse mode at  84     Hk =   2.500
 MRCHUE: Inverse mode at  85     Hk =   2.500
 MRCHUE: Inverse mode at  86     Hk =   2.500
 MRCHUE: Inverse mode at  87     Hk =   2.500
 MRCHUE: Inverse mode at  88     Hk =   2.500
 MRCHUE: Inverse mode at  89     Hk =   2.500
 MRCHUE: Inverse mode at  90     Hk =   2.500
 MRCHUE: Inverse mode at  91     Hk =   2.500
 MRCHUE: Convergence failed at  92  side 1    Res =  0.4653E+01
    side            2  ...
 MRCHUE: Inverse mode at  43     Hk =   5.345
 MRCHUE: Inverse mode at  44     Hk =   7.019
 MRCHUE: Inverse mode at  45     Hk =   8.642
 MRCHUE: Inverse mode at  46     Hk =   3.754
 MRCHUE: Inverse mode at  47     Hk =   2.500
 MRCHUE: Inverse mode at  75     Hk =   2.366
 MRCHUE: Inverse mode at  76     Hk =   2.339

 MRCHDU: Convergence failed at  92  side 1    Res =  0.4066E+01
 Side 1  free  transition at x/c =  0.0001   13
 Side 2  free  transition at x/c =  0.6649   46

   1   rms: 0.5669E+00   max: -.4960E+01   T at   13  1   RLX: 0.101
       a =  8.500      CL =  1.9737
      Cm = -0.2442     CD =  0.00954   =>   CDf =  0.00731    CDp =  0.00223

 MRCHDU: Convergence failed at  14  side 1    Res =  0.1693E+01
 MRCHDU: Convergence failed at  16  side 1    Res =  0.1266E+01
 Side 1  free  transition at x/c =  0.0003   13
 Side 2  free  transition at x/c =  0.6662   46

   2   rms: 0.8632E+00   max: -.1080E+02   D at   14  1   RLX: 0.046
       a =  8.500      CL =  1.9664
      Cm = -0.2418     CD =  0.00977   =>   CDf =  0.00753    CDp =  0.00224

 Side 1  free  transition at x/c =  0.0007   14
 Side 2  free  transition at x/c =  0.6667   46

   3   rms: 0.7884E+00   max: -.9839E+01   C at   14  1   RLX: 0.051
       a =  8.500      CL =  1.9566
      Cm = -0.2399     CD =  0.01013   =>   CDf =  0.00733    CDp =  0.00280

 Side 1  free  transition at x/c =  0.0235   21
 Side 2  free  transition at x/c =  0.6673   46

   4   rms: 0.3096E+01   max: -.4287E+02   C at   21  1   RLX: 0.012
       a =  8.500      CL =  1.9566
      Cm = -0.2392     CD =  0.00954   =>   CDf =  0.00719    CDp =  0.00235

 Side 1  free  transition at x/c =  0.0276   22
 Side 2  free  transition at x/c =  0.6675   46

   5   rms: 0.1125E+01   max: 0.1565E+02   D at   22  1   RLX: 0.064
       a =  8.500      CL =  1.9495
      Cm = -0.2376     CD =  0.00954   =>   CDf =  0.00714    CDp =  0.00240

 Side 1  free  transition at x/c =  0.0332   22
 Side 2  free  transition at x/c =  0.6682   46

   6   rms: 0.3098E+00   max: 0.2449E+01   C at   22  1   RLX: 0.304
       a =  8.500      CL =  1.8931
      Cm = -0.2266     CD =  0.01145   =>   CDf =  0.00708    CDp =  0.00438

 Side 1  free  transition at x/c =  0.0834   28
 Side 2  free  transition at x/c =  0.6718   46

   7   rms: 0.2245E+00   max: -.3987E+01   C at   28  1   RLX: 0.125
       a =  8.500      CL =  1.8786
      Cm = -0.2222     CD =  0.01123   =>   CDf =  0.00651    CDp =  0.00471

 Side 1  free  transition at x/c =  0.0857   28
 Side 2  free  transition at x/c =  0.6729   46

   8   rms: 0.1559E+00   max: -.1086E+01   C at   28  1   RLX: 0.461
       a =  8.500      CL =  1.8193
      Cm = -0.2093     CD =  0.01296   =>   CDf =  0.00648    CDp =  0.00648

 Side 1  free  transition at x/c =  0.1027   30
 Side 2  free  transition at x/c =  0.6766   47
 idif Ue xi dudx           1  0.15215838      7.89916515E-03   19.262590    
 Uenew xinew           2  3.45911570E-02  1.79576874E-03

   9   rms: 0.1217E+00   max: 0.4220E+00   D at   81  2
       a =  8.500      CL =  1.7109
      Cm = -0.1856     CD =  0.01533   =>   CDf =  0.00643    CDp =  0.00890

 Side 1  free  transition at x/c =  0.1045   29
 Side 2  free  transition at x/c =  0.6931   49

  10   rms: 0.5558E-01   max: -.3258E+00   D at   49  2
       a =  8.500      CL =  1.6785
      Cm = -0.1796     CD =  0.01668   =>   CDf =  0.00607    CDp =  0.01061
 VISCAL:  Convergence failed

.OPERva   c>   BLs will be initialized on next point

.OPERva   c>   Calculating wake trajectory ...
 Calculating source influence matrix ...

 Solving BL system ...

 Initializing BL ...
    side            1  ...
 MRCHUE: Inverse mode at  12     Hk =   9.117
 MRCHUE: Inverse mode at  13     Hk =  11.395
 MRCHUE: Inverse mode at  14     Hk =   2.744
 MRCHUE: Inverse mode at  82     Hk =   2.500
 MRCHUE: Inverse mode at  83     Hk =   2.500
 MRCHUE: Inverse mode at  84     Hk =   2.500
 MRCHUE: Inverse mode at  85     Hk =   2.500
 MRCHUE: Inverse mode at  86     Hk =   2.500
 MRCHUE: Inverse mode at  87     Hk =   2.500
 MRCHUE: Inverse mode at  88     Hk =   2.500
 MRCHUE: Inverse mode at  89     Hk =   2.500
 MRCHUE: Inverse mode at  90     Hk =   2.500
 MRCHUE: Inverse mode at  91     Hk =   2.500
 MRCHUE: Inverse mode at  92     Hk =   2.500
 MRCHUE: Convergence failed at  93  side 1    Res =  0.4979E+01
    side            2  ...
 MRCHUE: Inverse mode at  42     Hk =   5.137
 MRCHUE: Inverse mode at  43     Hk =   6.823
 MRCHUE: Inverse mode at  44     Hk =   8.452
 MRCHUE: Inverse mode at  45     Hk =   5.036
 MRCHUE: Inverse mode at  46     Hk =   2.500
 MRCHUE: Inverse mode at  74     Hk =   2.372
 MRCHUE: Inverse mode at  75     Hk =   2.344

 MRCHDU: Convergence failed at  93  side 1    Res =  0.4358E+01
 Side 1  free  transition at x/c =  0.0001   14
 Side 2  free  transition at x/c =  0.6678   45

   1   rms: 0.3695E+00   max: -.3983E+01   D at   14  1   RLX: 0.126
       a =  9.000      CL =  2.0303
      Cm = -0.2444     CD =  0.00989   =>   CDf =  0.00735    CDp =  0.00254

 MRCHDU: Convergence failed at  14  side 1    Res =  0.4718E+01
 Side 1  free  transition at x/c =  0.0002   14
 Side 2  free  transition at x/c =  0.6694   45

   2   rms: 0.3347E+00   max: -.3019E+01   T at   14  1   RLX: 0.166
       a =  9.000      CL =  1.9952
      Cm = -0.2369     CD =  0.01099   =>   CDf =  0.00739    CDp =  0.00360

 Side 1  free  transition at x/c =  0.0532   26
 Side 2  free  transition at x/c =  0.6715   45
 idif Ue xi dudx           1  0.10126636      6.75761700E-03   14.985514    
 Uenew xinew           2  9.95031674E-04  6.63995743E-05

   3   rms: 0.7004E+00   max: -.1341E+02   C at   26  1   RLX: 0.037
       a =  9.000      CL =  1.9905
      Cm = -0.2348     CD =  0.00989   =>   CDf =  0.00707    CDp =  0.00282

 Side 1  free  transition at x/c =  0.0571   25
 Side 2  free  transition at x/c =  0.6719   46

   4   rms: 0.8095E+00   max: -.1614E+02   C at   25  1   RLX: 0.031
       a =  9.000      CL =  1.9855
      Cm = -0.2339     CD =  0.01006   =>   CDf =  0.00680    CDp =  0.00327

 Side 1  free  transition at x/c =  0.0627   26
 Side 2  free  transition at x/c =  0.6721   46

   5   rms: 0.5221E+00   max: -.1026E+02   C at   26  1   RLX: 0.049
       a =  9.000      CL =  1.9795
      Cm = -0.2324     CD =  0.01012   =>   CDf =  0.00673    CDp =  0.00340

 Side 1  free  transition at x/c =  0.0659   26
 Side 2  free  transition at x/c =  0.6726   46

   6   rms: 0.2834E+00   max: -.4717E+01   C at   26  1   RLX: 0.106
       a =  9.000      CL =  1.9635
      Cm = -0.2291     CD =  0.01065   =>   CDf =  0.00669    CDp =  0.00396

 Side 1  free  transition at x/c =  0.0746   27
 Side 2  free  transition at x/c =  0.6735   46

   7   rms: 0.1926E+00   max: -.1009E+01   D at   12  1   RLX: 0.496
       a =  9.000      CL =  1.8911
      Cm = -0.2135     CD =  0.01284   =>   CDf =  0.00658    CDp =  0.00625

 Side 1  free  transition at x/c =  0.0755   27
 Side 2  free  transition at x/c =  0.6793   47

   8   rms: 0.1475E+00   max: 0.5852E+00   D at   80  2
       a =  9.000      CL =  1.7532
      Cm = -0.1846     CD =  0.01663   =>   CDf =  0.00651    CDp =  0.01012

 Side 1  free  transition at x/c =  0.1020   30
 Side 2  free  transition at x/c =  0.6911   48
 idif Ue xi dudx           1  0.12412434      6.60812855E-03   18.783585    
 Uenew xinew           2  9.48067848E-03  5.04732132E-04

   9   rms: 0.6636E-01   max: 0.3511E+00   D at   83  2
       a =  9.000      CL =  1.7149
      Cm = -0.1772     CD =  0.01770   =>   CDf =  0.00629    CDp =  0.01142

 Side 1  free  transition at x/c =  0.0990   29
 Side 2  free  transition at x/c =  0.6899   48

  10   rms: 0.1190E-01   max: 0.1093E+00   D at   85  2
       a =  9.000      CL =  1.7131
      Cm = -0.1771     CD =  0.01796   =>   CDf =  0.00605    CDp =  0.01191
 VISCAL:  Convergence failed

.OPERva   c>   BLs will be initialized on next point

.OPERva   c>   Calculating wake trajectory ...
 Calculating source influence matrix ...

 Solving BL system ...

 Initializing BL ...
    side            1  ...
 MRCHUE: Inverse mode at  12     Hk =   9.165
 MRCHUE: Inverse mode at  13     Hk =  11.214
 MRCHUE: Inverse mode at  14     Hk =   2.500
 MRCHUE: Inverse mode at  81     Hk =   2.500
 MRCHUE: Inverse mode at  82     Hk =   2.500
 MRCHUE: Inverse mode at  83     Hk =   2.500
 MRCHUE: Inverse mode at  84     Hk =   2.500
 MRCHUE: Inverse mode at  85     Hk =   2.500
 MRCHUE: Inverse mode at  86     Hk =   2.500
 MRCHUE: Inverse mode at  87     Hk =   2.500
 MRCHUE: Inverse mode at  88     Hk =   2.500
 MRCHUE: Inverse mode at  89     Hk =   2.500
 MRCHUE: Inverse mode at  90     Hk =   2.500
 MRCHUE: Inverse mode at  91     Hk =   2.500
 MRCHUE: Inverse mode at  92     Hk =   2.500
 MRCHUE: Convergence failed at  93  side 1    Res =  0.5362E+01
    side            2  ...
 MRCHUE: Inverse mode at  42     Hk =   5.032
 MRCHUE: Inverse mode at  43     Hk =   6.729
 MRCHUE: Inverse mode at  44     Hk =   8.369
 MRCHUE: Inverse mode at  45     Hk =   5.805
 MRCHUE: Inverse mode at  46     Hk =   2.500
 MRCHUE: Inverse mode at  74     Hk =   2.376
 MRCHUE: Inverse mode at  75     Hk =   2.349

 MRCHDU: Convergence failed at  93  side 1    Res =  0.4703E+01
 Side 1  free  transition at x/c =  0.0001   14
 Side 2  free  transition at x/c =  0.6694   45

   1   rms: 0.3608E+00   max: -.3732E+01   D at   14  1   RLX: 0.134
       a =  9.500      CL =  2.0875
      Cm = -0.2462     CD =  0.01008   =>   CDf =  0.00737    CDp =  0.00271

 Side 1  free  transition at x/c =  0.0002   14
 Side 2  free  transition at x/c =  0.6712   45

   2   rms: 0.3634E+00   max: -.3603E+01   C at   14  1   RLX: 0.139
       a =  9.500      CL =  2.0566
      Cm = -0.2397     CD =  0.01107   =>   CDf =  0.00736    CDp =  0.00371

 Side 1  free  transition at x/c =  0.0005   15
 Side 2  free  transition at x/c =  0.6728   45

   3   rms: 0.1199E+01   max: -.1521E+02   D at   14  1   RLX: 0.033
       a =  9.500      CL =  2.0491
      Cm = -0.2382     CD =  0.01134   =>   CDf =  0.00736    CDp =  0.00398

 Side 1  free  transition at x/c =  0.0566   26
 Side 2  free  transition at x/c =  0.6731   45

   4   rms: 0.2771E+00   max: -.2971E+01   C at   26  1   RLX: 0.168
       a =  9.500      CL =  2.0226
      Cm = -0.2312     CD =  0.01072   =>   CDf =  0.00679    CDp =  0.00393

 Side 1  free  transition at x/c =  0.0570   26
 Side 2  free  transition at x/c =  0.6745   45
 idif Ue xi dudx           1  0.11314323      7.39002228E-03   15.310268    
 Uenew xinew           2  1.06988903E-02  6.98804855E-04

   5   rms: 0.2098E+00   max: 0.1100E+01   C at   26  1   RLX: 0.744
       a =  9.500      CL =  1.8987
      Cm = -0.2050     CD =  0.01484   =>   CDf =  0.00700    CDp =  0.00783

 MRCHDU: Convergence failed at  47  side 2    Res =  0.2831E+01
 Side 1  free  transition at x/c =  0.0578   26
 Side 2  free  transition at x/c =  0.6856   47

   6   rms: 0.2010E+00   max: -.9210E+00   T at    2  2   RLX: 0.543
       a =  9.500      CL =  1.7947
      Cm = -0.1842     CD =  0.01673   =>   CDf =  0.00661    CDp =  0.01012

 Side 1  free  transition at x/c =  0.0689   27
 Side 2  free  transition at x/c =  0.6901   47

   7   rms: 0.1016E+00   max: 0.1097E+01   D at   27  1   RLX: 0.841
       a =  9.500      CL =  1.7591
      Cm = -0.1768     CD =  0.01840   =>   CDf =  0.00637    CDp =  0.01203

 Side 1  free  transition at x/c =  0.1004   30
 Side 2  free  transition at x/c =  0.6929   48

   8   rms: 0.3563E-01   max: -.5822E+00   D at   30  1   RLX: 0.859
       a =  9.500      CL =  1.7495
      Cm = -0.1746     CD =  0.01911   =>   CDf =  0.00599    CDp =  0.01312

 Side 1  free  transition at x/c =  0.0940   29
 Side 2  free  transition at x/c =  0.6955   48

   9   rms: 0.8190E-02   max: 0.1022E+00   C at   29  1
       a =  9.500      CL =  1.7484
      Cm = -0.1747     CD =  0.01907   =>   CDf =  0.00600    CDp =  0.01307

 Side 1  free  transition at x/c =  0.0912   29
 Side 2  free  transition at x/c =  0.6953   48

  10   rms: 0.8563E-03   max: 0.5365E-02   D at   29  1
       a =  9.500      CL =  1.7476
      Cm = -0.1746     CD =  0.01911   =>   CDf =  0.00603    CDp =  0.01308
 VISCAL:  Convergence failed

.OPERva   c>   BLs will be initialized on next point

.OPERva   c>   Calculating wake trajectory ...
 Calculating source influence matrix ...

 Solving BL system ...

 Initializing BL ...
    side            1  ...
 MRCHUE: Inverse mode at  13     Hk =   9.215
 MRCHUE: Inverse mode at  14     Hk =  10.768
 MRCHUE: Inverse mode at  15     Hk =   2.500
 MRCHUE: Inverse mode at  82     Hk =   2.500
 MRCHUE: Inverse mode at  83     Hk =   2.500
 MRCHUE: Inverse mode at  84     Hk =   2.500
 MRCHUE: Inverse mode at  85     Hk =   2.500
 MRCHUE: Inverse mode at  86     Hk =   2.500
 MRCHUE: Inverse mode at  87     Hk =   2.500
 MRCHUE: Inverse mode at  88     Hk =   2.500
 MRCHUE: Inverse mode at  89     Hk =   2.500
 MRCHUE: Inverse mode at  90     Hk =   2.500
 MRCHUE: Inverse mode at  91     Hk =   2.500
 MRCHUE: Inverse mode at  92     Hk =   2.500
 MRCHUE: Inverse mode at  93     Hk =   2.500
 MRCHUE: Convergence failed at  94  side 1    Res =  0.5763E+01
    side            2  ...
 MRCHUE: Inverse mode at  41     Hk =   4.961
 MRCHUE: Inverse mode at  42     Hk =   6.671
 MRCHUE: Inverse mode at  43     Hk =   8.321
 MRCHUE: Inverse mode at  44     Hk =   6.360
 MRCHUE: Inverse mode at  45     Hk =   2.500
 MRCHUE: Inverse mode at  73     Hk =   2.381
 MRCHUE: Inverse mode at  74     Hk =   2.354

 MRCHDU: Convergence failed at  94  side 1    Res =  0.5066E+01
 Side 1  free  transition at x/c =  0.0001   14
 Side 2  free  transition at x/c =  0.6705   44
 idif Ue xi dudx           1  9.70592871E-02  7.63714314E-03   12.708847    
 Uenew xinew           2  4.63290839E-03  3.64542007E-04

   1   rms: 0.3250E+00   max: -.1687E+01   D at   15  1   RLX: 0.296
       a = 10.000      CL =  2.1074
      Cm = -0.2404     CD =  0.01147   =>   CDf =  0.00774    CDp =  0.00373

 Side 1  free  transition at x/c =  0.0003   14
 Side 2  free  transition at x/c =  0.6744   45

   2   rms: 0.6962E+00   max: -.1589E+02   C at   14  1   RLX: 0.031
       a = 10.000      CL =  2.0999
      Cm = -0.2388     CD =  0.01200   =>   CDf =  0.00734    CDp =  0.00465

 Side 1  free  transition at x/c =  0.0003   14
 Side 2  free  transition at x/c =  0.6746   45

   3   rms: 0.3245E+00   max: -.2946E+01   T at   14  1   RLX: 0.170
       a = 10.000      CL =  2.0584
      Cm = -0.2302     CD =  0.01313   =>   CDf =  0.00736    CDp =  0.00577

[...]
 Calculating source influence matrix ...

 Solving BL system ...

 Initializing BL ...
    side            1  ...
 MRCHUE: Inverse mode at  16     Hk =   9.573
 MRCHUE: Inverse mode at  17     Hk =   7.961
 MRCHUE: Inverse mode at  18     Hk =   2.500
 MRCHUE: Inverse mode at  82     Hk =   2.500
 MRCHUE: Inverse mode at  83     Hk =   2.500
 MRCHUE: Inverse mode at  84     Hk =   2.500
 MRCHUE: Inverse mode at  85     Hk =   2.500
 MRCHUE: Inverse mode at  86     Hk =   2.500
 MRCHUE: Inverse mode at  87     Hk =   2.500
 MRCHUE: Inverse mode at  88     Hk =   2.500
 MRCHUE: Inverse mode at  89     Hk =   2.500
 MRCHUE: Inverse mode at  90     Hk =   2.500
 MRCHUE: Inverse mode at  91     Hk =   2.500
 MRCHUE: Inverse mode at  92     Hk =   2.500
 MRCHUE: Inverse mode at  93     Hk =   2.500
 MRCHUE: Inverse mode at  94     Hk =   2.500
 MRCHUE: Inverse mode at  95     Hk =   2.500
 MRCHUE: Convergence failed at  96  side 1    Res =  0.4583E+01
 MRCHUE: Inverse mode at  97     Hk =   2.500
    side            2  ...
 MRCHUE: Inverse mode at  40     Hk =   4.936
 MRCHUE: Inverse mode at  41     Hk =   6.539
 MRCHUE: Inverse mode at  42     Hk =   8.078
 MRCHUE: Inverse mode at  43     Hk =   6.647
 MRCHUE: Inverse mode at  44     Hk =   2.500
 MRCHUE: Inverse mode at  70     Hk =   2.410
 MRCHUE: Inverse mode at  71     Hk =   2.384

 MRCHDU: Convergence failed at  96  side 1    Res =  0.1753E+01
 MRCHDU: Convergence failed at  97  side 1    Res =  0.1658E+01
 Side 1  free  transition at x/c =  0.0001   17
 Side 2  free  transition at x/c =  0.7022   43

   1   rms: 0.4040E+00   max: 0.1768E+01   D at   77  2   RLX: 0.362
       a = 13.500      CL =  2.4850
      Cm = -0.2522     CD =  0.01355   =>   CDf =  0.00728    CDp =  0.00627

 Side 1  free  transition at x/c =  0.0001   17
 Side 2  free  transition at x/c =  0.7089   44
 idif Ue xi dudx           1  0.11831155      1.42909288E-02   8.2787867    
 Uenew xinew           2  4.34535705E-02  5.24878502E-03

   2   rms: 0.3870E+00   max: 0.1347E+01   D at   80  2   RLX: 0.528
       a = 13.500      CL =  2.2790
      Cm = -0.2104     CD =  0.02017   =>   CDf =  0.00768    CDp =  0.01248

 Side 1  free  transition at x/c =  0.0002   17
 Side 2  free  transition at x/c =  0.7267   46

   3   rms: 0.4750E+00   max: -.6884E+01   C at   17  1   RLX: 0.073
       a = 13.500      CL =  2.2576
      Cm = -0.2089     CD =  0.02144   =>   CDf =  0.00697    CDp =  0.01447

 Side 1  free  transition at x/c =  0.0003   17
 Side 2  free  transition at x/c =  0.7279   46
 idif Ue xi dudx           1  8.66562277E-02  9.68766212E-03   8.9450092    
 Uenew xinew           2  1.09885121E-02  1.22845173E-03

   4   rms: 0.3747E+00   max: -.1630E+01   T at   17  1   RLX: 0.307
       a = 13.500      CL =  2.1507
      Cm = -0.1896     CD =  0.02578   =>   CDf =  0.00739    CDp =  0.01839

 Side 1  free  transition at x/c =  0.0266   24
 Side 2  free  transition at x/c =  0.7324   47

   5   rms: 0.2091E+00   max: -.1146E+01   C at   24  1   RLX: 0.436
       a = 13.500      CL =  2.0617
      Cm = -0.1695     CD =  0.02877   =>   CDf =  0.00643    CDp =  0.02234

 Side 1  free  transition at x/c =  0.0274   25
 Side 2  free  transition at x/c =  0.7346   47

   6   rms: 0.1044E+00   max: -.7344E+00   D at   24  1   RLX: 0.681
       a = 13.500      CL =  1.9861
      Cm = -0.1563     CD =  0.03286   =>   CDf =  0.00633    CDp =  0.02653

 Side 1  free  transition at x/c =  0.0425   27
 Side 2  free  transition at x/c =  0.7390   48

   7   rms: 0.2996E-01   max: 0.1639E+00   D at   48  2
       a = 13.500      CL =  1.9595
      Cm = -0.1507     CD =  0.03425   =>   CDf =  0.00599    CDp =  0.02825

 Side 1  free  transition at x/c =  0.0413   27
 Side 2  free  transition at x/c =  0.7442   48

   8   rms: 0.1858E-02   max: 0.2295E-01   C at   48  2
       a = 13.500      CL =  1.9586
      Cm = -0.1505     CD =  0.03417   =>   CDf =  0.00595    CDp =  0.02822

 Side 1  free  transition at x/c =  0.0411   27
 Side 2  free  transition at x/c =  0.7434   48

   9   rms: 0.2002E-03   max: 0.3608E-02   D at   85  2
       a = 13.500      CL =  1.9585
      Cm = -0.1505     CD =  0.03417   =>   CDf =  0.00595    CDp =  0.02822

 Side 1  free  transition at x/c =  0.0411   27
 Side 2  free  transition at x/c =  0.7434   48

  10   rms: 0.9942E-05   max: 0.1300E-03   D at   85  2
       a = 13.500      CL =  1.9585
      Cm = -0.1505     CD =  0.03417   =>   CDf =  0.00595    CDp =  0.02822
 plradd ia,ip,cpol           20          94  8.00000038E-03

 Point added to stored polar  1
 Point written to save file  aux_files/XFOIL_Polar_Output.dat                
 Dump file unspecified or not available

.OPERva   c>   BLs will be initialized on next point

.OPERva   c>   Calculating wake trajectory ...
 Calculating source influence matrix ...

 Solving BL system ...

 Initializing BL ...
    side            1  ...
 MRCHUE: Inverse mode at  17     Hk =   9.624
 MRCHUE: Inverse mode at  18     Hk =   7.597
 MRCHUE: Inverse mode at  19     Hk =   2.500
 MRCHUE: Inverse mode at  83     Hk =   2.500
 MRCHUE: Inverse mode at  84     Hk =   2.500
 MRCHUE: Inverse mode at  85     Hk =   2.500
 MRCHUE: Inverse mode at  86     Hk =   2.500
 MRCHUE: Inverse mode at  87     Hk =   2.500
 MRCHUE: Inverse mode at  88     Hk =   2.500
 MRCHUE: Inverse mode at  89     Hk =   2.500
 MRCHUE: Inverse mode at  90     Hk =   2.500
 MRCHUE: Inverse mode at  91     Hk =   2.500
 MRCHUE: Inverse mode at  92     Hk =   2.500
 MRCHUE: Inverse mode at  93     Hk =   2.500
 MRCHUE: Inverse mode at  94     Hk =   2.500
 MRCHUE: Inverse mode at  95     Hk =   2.500
 MRCHUE: Inverse mode at  96     Hk =   2.500
 MRCHUE: Convergence failed at  97  side 1    Res =  0.4997E+01
 MRCHUE: Inverse mode at  98     Hk =   2.500
    side            2  ...
 MRCHUE: Inverse mode at  39     Hk =   4.858
 MRCHUE: Inverse mode at  40     Hk =   6.472
 MRCHUE: Inverse mode at  41     Hk =   8.018
 MRCHUE: Inverse mode at  42     Hk =   7.686
 MRCHUE: Inverse mode at  43     Hk =   2.500
 MRCHUE: Inverse mode at  69     Hk =   2.413
 MRCHUE: Inverse mode at  70     Hk =   2.388

 MRCHDU: Convergence failed at  97  side 1    Res =  0.1847E+01
 MRCHDU: Convergence failed at  98  side 1    Res =  0.1853E+01
 Side 1  free  transition at x/c =  0.0001   18
 Side 2  free  transition at x/c =  0.7038   42
 idif Ue xi dudx           1  9.03719962E-02  1.27253532E-02   7.1017280    
 Uenew xinew           2  2.20511798E-02  3.10504436E-03

   1   rms: 0.4157E+00   max: 0.1827E+01   D at   76  2   RLX: 0.371
       a = 14.000      CL =  2.5370
      Cm = -0.2540     CD =  0.01390   =>   CDf =  0.00775    CDp =  0.00615

 Side 1  free  transition at x/c =  0.0001   17
 Side 2  free  transition at x/c =  0.7122   44
 idif Ue xi dudx           1  9.63116288E-02  1.19725466E-02   8.0443726    
 Uenew xinew           2  2.35732514E-02  2.93040276E-03

   2   rms: 0.4081E+00   max: 0.1440E+01   D at   74  2   RLX: 0.604
       a = 14.000      CL =  2.2850
      Cm = -0.2031     CD =  0.02194   =>   CDf =  0.00768    CDp =  0.01425

 Side 1  free  transition at x/c =  0.0002   17
 Side 2  free  transition at x/c =  0.7320   46

   3   rms: 0.4068E+00   max: -.3181E+01   C at   17  1   RLX: 0.157
       a = 14.000      CL =  2.2356
      Cm = -0.1977     CD =  0.02520   =>   CDf =  0.00688    CDp =  0.01832

 Side 1  free  transition at x/c =  0.0004   18
 Side 2  free  transition at x/c =  0.7345   46

   4   rms: 0.1671E+01   max: -.2192E+02   D at   17  1   RLX: 0.023
       a = 14.000      CL =  2.2290
      Cm = -0.1964     CD =  0.02541   =>   CDf =  0.00682    CDp =  0.01859

 Side 1  free  transition at x/c =  0.0250   25
 Side 2  free  transition at x/c =  0.7348   46

   5   rms: 0.2892E+00   max: -.3158E+01   C at   25  1   RLX: 0.158
       a = 14.000      CL =  2.1891
      Cm = -0.1850     CD =  0.02576   =>   CDf =  0.00645    CDp =  0.01931

 Side 1  free  transition at x/c =  0.0270   25
 Side 2  free  transition at x/c =  0.7344   46
 idif Ue xi dudx           1  8.35097209E-02  9.17255878E-03   9.1042995    
 Uenew xinew           2  6.49453746E-03  7.13348389E-04

   6   rms: 0.2047E+00   max: -.1196E+01   C at   25  1   RLX: 0.418
       a = 14.000      CL =  2.1021
      Cm = -0.1694     CD =  0.03010   =>   CDf =  0.00672    CDp =  0.02338

 Side 1  free  transition at x/c =  0.0329   25
 Side 2  free  transition at x/c =  0.7398   48

   7   rms: 0.1320E+00   max: -.7089E+00   T at    2  2   RLX: 0.705
       a = 14.000      CL =  2.0112
      Cm = -0.1535     CD =  0.03488   =>   CDf =  0.00617    CDp =  0.02871

 Side 1  free  transition at x/c =  0.0348   26
 Side 2  free  transition at x/c =  0.7483   48

   8   rms: 0.3159E-01   max: 0.1756E+00   D at   85  2
       a = 14.000      CL =  1.9780
      Cm = -0.1475     CD =  0.03699   =>   CDf =  0.00601    CDp =  0.03098

 Side 1  free  transition at x/c =  0.0352   26
 Side 2  free  transition at x/c =  0.7503   49

   9   rms: 0.5079E-02   max: 0.6200E-01   D at   85  2
       a = 14.000      CL =  1.9758
      Cm = -0.1472     CD =  0.03691   =>   CDf =  0.00596    CDp =  0.03096

 Side 1  free  transition at x/c =  0.0352   26
 Side 2  free  transition at x/c =  0.7513   49

  10   rms: 0.6131E-03   max: -.1019E-01   D at   49  2
       a = 14.000      CL =  1.9757
      Cm = -0.1472     CD =  0.03692   =>   CDf =  0.00595    CDp =  0.03098
 VISCAL:  Convergence failed

.OPERva   c>   BLs will be initialized on next point

.OPERva   c>   Calculating wake trajectory ...
 Calculating source influence matrix ...

 Solving BL system ...

 Initializing BL ...
    side            1  ...
 MRCHUE: Inverse mode at  17     Hk =   9.676
 MRCHUE: Inverse mode at  18     Hk =   7.240
 MRCHUE: Inverse mode at  19     Hk =   2.500
 MRCHUE: Inverse mode at  82     Hk =   2.500
 MRCHUE: Inverse mode at  83     Hk =   2.500
 MRCHUE: Inverse mode at  84     Hk =   2.500
 MRCHUE: Inverse mode at  85     Hk =   2.500
 MRCHUE: Inverse mode at  86     Hk =   2.500
 MRCHUE: Inverse mode at  87     Hk =   2.500
 MRCHUE: Inverse mode at  88     Hk =   2.500
 MRCHUE: Inverse mode at  89     Hk =   2.500
 MRCHUE: Inverse mode at  90     Hk =   2.500
 MRCHUE: Inverse mode at  91     Hk =   2.500
 MRCHUE: Inverse mode at  92     Hk =   2.500
 MRCHUE: Inverse mode at  93     Hk =   2.500
 MRCHUE: Inverse mode at  94     Hk =   2.500
 MRCHUE: Inverse mode at  95     Hk =   2.500
 MRCHUE: Inverse mode at  96     Hk =   2.500
 MRCHUE: Convergence failed at  97  side 1    Res =  0.5429E+01
 MRCHUE: Inverse mode at  98     Hk =   2.500
    side            2  ...
 MRCHUE: Inverse mode at  41     Hk =   5.197
 MRCHUE: Inverse mode at  42     Hk =   6.637
 MRCHUE: Inverse mode at  43     Hk =   8.018
 MRCHUE: Inverse mode at  44     Hk =   2.500
 MRCHUE: Inverse mode at  69     Hk =   2.421
 MRCHUE: Inverse mode at  70     Hk =   2.395

 MRCHDU: Convergence failed at  97  side 1    Res =  0.1942E+01
 MRCHDU: Convergence failed at  98  side 1    Res =  0.1948E+01
 Side 1  free  transition at x/c =  0.0001   18
 Side 2  free  transition at x/c =  0.7228   44

   1   rms: 0.4412E+00   max: 0.1881E+01   D at   76  2   RLX: 0.381
       a = 14.500      CL =  2.5892
      Cm = -0.2559     CD =  0.01422   =>   CDf =  0.00721    CDp =  0.00701

 Side 1  free  transition at x/c =  0.0001   18
 Side 2  free  transition at x/c =  0.7369   45
 idif Ue xi dudx           2  0.13610606      1.88418627E-02   7.2235990    
 Uenew xinew           3  6.66128099E-02  9.22155380E-03

   2   rms: 0.4310E+00   max: 0.1548E+01   D at   73  2   RLX: 0.630
       a = 14.500      CL =  2.3066
      Cm = -0.1994     CD =  0.02332   =>   CDf =  0.00810    CDp =  0.01521

 Side 1  free  transition at x/c =  0.0002   17
 Side 2  free  transition at x/c =  0.7715   49

   3   rms: 0.7597E+00   max: -.1121E+02   T at    2  2   RLX: 0.045
       a = 14.500      CL =  2.2973
      Cm = -0.2016     CD =  0.02543   =>   CDf =  0.00675    CDp =  0.01867

 Side 1  free  transition at x/c =  0.0002   17
 Side 2  free  transition at x/c =  0.7712   49

   4   rms: 0.3875E+00   max: -.2368E+01   C at   17  1   RLX: 0.211
       a = 14.500      CL =  2.2220
      Cm = -0.1884     CD =  0.02897   =>   CDf =  0.00673    CDp =  0.02224

 Side 1  free  transition at x/c =  0.0004   18
 Side 2  free  transition at x/c =  0.7695   49

   5   rms: 0.6593E+00   max: -.8290E+01   C at   18  1   RLX: 0.060
       a = 14.500      CL =  2.2056
      Cm = -0.1853     CD =  0.02955   =>   CDf =  0.00665    CDp =  0.02290

 Side 1  free  transition at x/c =  0.0211   24
 Side 2  free  transition at x/c =  0.7690   49
 idif Ue xi dudx           1  8.89698341E-02  9.53567028E-03   9.3302126    
 Uenew xinew           2  1.00435996E-02  1.07645988E-03

   6   rms: 0.2287E+00   max: 0.8430E+00   D at   82  2   RLX: 0.759
       a = 14.500      CL =  2.0287
      Cm = -0.1511     CD =  0.03799   =>   CDf =  0.00668    CDp =  0.03131

 Side 1  free  transition at x/c =  0.0213   23
 Side 2  free  transition at x/c =  0.7632   49

   7   rms: 0.5304E-01   max: -.4373E+00   C at   23  1
       a = 14.500      CL =  1.9787
      Cm = -0.1427     CD =  0.04131   =>   CDf =  0.00610    CDp =  0.03521

 Side 1  free  transition at x/c =  0.0312   25
 Side 2  free  transition at x/c =  0.7602   49

   8   rms: 0.1542E-01   max: 0.2047E+00   C at   25  1
       a = 14.500      CL =  1.9903
      Cm = -0.1438     CD =  0.03996   =>   CDf =  0.00587    CDp =  0.03409

 Side 1  free  transition at x/c =  0.0281   25
 Side 2  free  transition at x/c =  0.7609   49

   9   rms: 0.1094E-02   max: 0.5595E-02   D at   73  1
       a = 14.500      CL =  1.9892
      Cm = -0.1437     CD =  0.04011   =>   CDf =  0.00594    CDp =  0.03417

 Side 1  free  transition at x/c =  0.0281   25
 Side 2  free  transition at x/c =  0.7609   49

  10   rms: 0.7115E-04   max: 0.4475E-03   D at   73  1
       a = 14.500      CL =  1.9892
      Cm = -0.1437     CD =  0.04011   =>   CDf =  0.00594    CDp =  0.03417
 plradd ia,ip,cpol           21          94  7.99999980E-05

 Point added to stored polar  1
 Point written to save file  aux_files/XFOIL_Polar_Output.dat                
 Dump file unspecified or not available

.OPERva   c>   BLs will be initialized on next point

.OPERva   c>   Calculating wake trajectory ...
 Calculating source influence matrix ...

 Solving BL system ...

 Initializing BL ...
    side            1  ...
 MRCHUE: Inverse mode at  18     Hk =   9.727
 MRCHUE: Inverse mode at  19     Hk =   6.891
 MRCHUE: Inverse mode at  20     Hk =   2.500
 MRCHUE: Inverse mode at  83     Hk =   2.500
 MRCHUE: Inverse mode at  84     Hk =   2.500
 MRCHUE: Inverse mode at  85     Hk =   2.500
 MRCHUE: Inverse mode at  86     Hk =   2.500
 MRCHUE: Inverse mode at  87     Hk =   2.500
 MRCHUE: Inverse mode at  88     Hk =   2.500
 MRCHUE: Inverse mode at  89     Hk =   2.500
 MRCHUE: Inverse mode at  90     Hk =   2.500
 MRCHUE: Inverse mode at  91     Hk =   2.500
 MRCHUE: Inverse mode at  92     Hk =   2.500
 MRCHUE: Inverse mode at  93     Hk =   2.500
 MRCHUE: Inverse mode at  94     Hk =   2.500
 MRCHUE: Inverse mode at  95     Hk =   2.500
 MRCHUE: Inverse mode at  96     Hk =   2.500
 MRCHUE: Convergence failed at  97  side 1    Res =  0.4350E+01
 MRCHUE: Inverse mode at  98     Hk =   2.500
 MRCHUE: Convergence failed at  99  side 1    Res =  0.4908E+01
    side            2  ...
 MRCHUE: Inverse mode at  40     Hk =   4.898
 MRCHUE: Inverse mode at  41     Hk =   6.345
 MRCHUE: Inverse mode at  42     Hk =   7.729
 MRCHUE: Inverse mode at  43     Hk =   5.074
 MRCHUE: Inverse mode at  44     Hk =   2.500
 MRCHUE: Inverse mode at  68     Hk =   2.421
 MRCHUE: Inverse mode at  69     Hk =   2.396

 MRCHDU: Convergence failed at  97  side 1    Res =  0.1441E+01
 MRCHDU: Convergence failed at  98  side 1    Res =  0.1466E+01
 MRCHDU: Convergence failed at  99  side 1    Res =  0.4640E+01
 Side 1  free  transition at x/c =  0.0001   19
 Side 2  free  transition at x/c =  0.7292   43
 idif Ue xi dudx           1  8.98447782E-02  1.42323971E-02   6.3126945    
 Uenew xinew           2  2.56447792E-02  4.06241417E-03

   1   rms: 0.4443E+00   max: 0.1944E+01   D at   75  2   RLX: 0.391
       a = 15.000      CL =  2.6406
      Cm = -0.2580     CD =  0.01458   =>   CDf =  0.00769    CDp =  0.00689

 Side 1  free  transition at x/c =  0.0001   18
 Side 2  free  transition at x/c =  0.7362   45
 idif Ue xi dudx           1  9.02460590E-02  1.30046606E-02   6.9395165    
 Uenew xinew           2  2.34857649E-02  3.38435173E-03

   2   rms: 0.4944E+00   max: 0.1711E+01   D at   73  2   RLX: 0.472
       a = 15.000      CL =  2.4044
      Cm = -0.2115     CD =  0.02216   =>   CDf =  0.00763    CDp =  0.01453

 Side 1  free  transition at x/c =  0.0001   18
 Side 2  free  transition at x/c =  0.7625   47
 idif Ue xi dudx           1  7.31570274E-02  9.40811634E-03   7.7759485    
 Uenew xinew           2  2.84578349E-03  3.65972519E-04

   3   rms: 0.4461E+00   max: 0.1668E+01   D at   79  2   RLX: 0.381
       a = 15.000      CL =  2.2443
      Cm = -0.1869     CD =  0.03067   =>   CDf =  0.00730    CDp =  0.02337

 Side 1  free  transition at x/c =  0.0026   19
 Side 2  free  transition at x/c =  0.7663   49

   4   rms: 0.5163E+00   max: -.1117E+02   C at   19  1   RLX: 0.045
       a = 15.000      CL =  2.2292
      Cm = -0.1825     CD =  0.03101   =>   CDf =  0.00657    CDp =  0.02444

 Side 1  free  transition at x/c =  0.0074   21
 Side 2  free  transition at x/c =  0.7666   49

   5   rms: 0.4960E+00   max: -.1196E+02   C at   21  1   RLX: 0.042
       a = 15.000      CL =  2.2190
      Cm = -0.1793     CD =  0.03111   =>   CDf =  0.00648    CDp =  0.02463

 MRCHDU: Convergence failed at  22  side 1    Res =  0.2943E-01
 Side 1  free  transition at x/c =  0.0109   22
 Side 2  free  transition at x/c =  0.7669   49

   6   rms: 0.7143E+00   max: -.1706E+02   C at   22  1   RLX: 0.029
       a = 15.000      CL =  2.2153
      Cm = -0.1778     CD =  0.03104   =>   CDf =  0.00642    CDp =  0.02461

 Side 1  free  transition at x/c =  0.0112   22
 Side 2  free  transition at x/c =  0.7672   49

   7   rms: 0.4531E+00   max: -.1094E+02   C at   22  1   RLX: 0.046
       a = 15.000      CL =  2.2068
      Cm = -0.1764     CD =  0.03153   =>   CDf =  0.00641    CDp =  0.02512

 Side 1  free  transition at x/c =  0.0123   23
 Side 2  free  transition at x/c =  0.7676   49

   8   rms: 0.2298E+00   max: 0.2722E+01   D at   23  1   RLX: 0.429
       a = 15.000      CL =  2.1381
      Cm = -0.1628     CD =  0.03465   =>   CDf =  0.00638    CDp =  0.02828

 Side 1  free  transition at x/c =  0.0155   23
 Side 2  free  transition at x/c =  0.7718   49
 idif Ue xi dudx           1  7.86043927E-02  8.57567787E-03   9.1659689    
 Uenew xinew           2  1.06753723E-03  1.16467476E-04

   9   rms: 0.1217E+00   max: 0.4163E+00   D at   84  2
       a = 15.000      CL =  1.9980
      Cm = -0.1402     CD =  0.04394   =>   CDf =  0.00659    CDp =  0.03735

 Side 1  free  transition at x/c =  0.0167   23
 Side 2  free  transition at x/c =  0.7732   50

  10   rms: 0.3084E-01   max: -.4965E+00   D at   22  1
       a = 15.000      CL =  1.9964
      Cm = -0.1400     CD =  0.04399   =>   CDf =  0.00600    CDp =  0.03799
 VISCAL:  Convergence failed

.OPERva   c>  
 Polar accumulation disabled

.OPERv   c>  
 XFOIL   c>  